
  EPA STORM WATER MANAGEMENT MODEL - VERSION 5.1 (Build 5.1.013)
  --------------------------------------------------------------

  Template input file for Gottesacker karst system.  
  Based on input files created by Zhao Chen. 
  Modified by Chloe Fandel: 
  
  WARNING 04: minimum elevation drop used for Conduit 36
  WARNING 04: minimum elevation drop used for Conduit 37
  
  *********************************************************
  NOTE: The summary statistics displayed in this report are
  based on results found at every computational time step,  
  not just on results from each reporting time step.
  *********************************************************
  
  ****************
  Analysis Options
  ****************
  Flow Units ............... LPS
  Process Models:
    Rainfall/Runoff ........ YES
    RDII ................... NO
    Snowmelt ............... NO
    Groundwater ............ NO
    Flow Routing ........... YES
    Ponding Allowed ........ NO
    Water Quality .......... NO
  Infiltration Method ...... HORTON
  Flow Routing Method ...... DYNWAVE
  Surcharge Method ......... EXTRAN
  Starting Date ............ 11/14/2013 00:00:00
  Ending Date .............. 10/11/2014 00:00:00
  Antecedent Dry Days ...... 0.0
  Report Time Step ......... 01:00:00
  Wet Time Step ............ 00:30:00
  Dry Time Step ............ 01:00:00
  Routing Time Step ........ 30.00 sec
  Variable Time Step ....... YES
  Maximum Trials ........... 8
  Number of Threads ........ 4
  Head Tolerance ........... 0.001524 m
  
  
  **************************        Volume         Depth
  Runoff Quantity Continuity     hectare-m            mm
  **************************     ---------       -------
  Total Precipitation ......      2501.060       761.068
  Evaporation Loss .........         0.000         0.000
  Infiltration Loss ........         0.000         0.000
  Surface Runoff ...........      2500.232       760.816
  Final Storage ............         1.354         0.412
  Continuity Error (%) .....        -0.021
  
  
  **************************        Volume        Volume
  Flow Routing Continuity        hectare-m      10^6 ltr
  **************************     ---------     ---------
  Dry Weather Inflow .......         0.000         0.000
  Wet Weather Inflow .......      2500.229     25002.547
  Groundwater Inflow .......         0.000         0.000
  RDII Inflow ..............         0.000         0.000
  External Inflow ..........         1.783        17.832
  External Outflow .........      2378.135     23781.595
  Flooding Loss ............       124.648      1246.489
  Evaporation Loss .........         0.000         0.000
  Exfiltration Loss ........         0.000         0.000
  Initial Stored Volume ....         0.000         0.000
  Final Stored Volume ......         0.536         5.364
  Continuity Error (%) .....        -0.052
  
  
  ***************************
  Time-Step Critical Elements
  ***************************
  Link 37 (99.86%)
  
  
  ********************************
  Highest Flow Instability Indexes
  ********************************
  Link 35 (1)
  
  
  *************************
  Routing Time Step Summary
  *************************
  Minimum Time Step           :     0.50 sec
  Average Time Step           :     0.61 sec
  Maximum Time Step           :    30.00 sec
  Percent in Steady State     :     0.30
  Average Iterations per Step :     2.05
  Percent Not Converging      :     0.36
  
  
  ***************************
  Subcatchment Runoff Summary
  ***************************
  
  ------------------------------------------------------------------------------------------------------------------------------
                            Total      Total      Total      Total     Imperv       Perv      Total       Total     Peak  Runoff
                           Precip      Runon       Evap      Infil     Runoff     Runoff     Runoff      Runoff   Runoff   Coeff
  Subcatchment                 mm         mm         mm         mm         mm         mm         mm    10^6 ltr      LPS
  ------------------------------------------------------------------------------------------------------------------------------
  S1                         0.00       0.00       0.00       0.00       0.00       0.00       0.00        0.00     0.00   0.000
  S2                         0.00       0.00       0.00       0.00       0.00       0.00       0.00        0.00     0.00   0.000
  S3                         0.00       0.00       0.00       0.00       0.00       0.00       0.00        0.00     0.00   0.000
  S4                         0.00       0.00       0.00       0.00       0.00       0.00       0.00        0.00     0.00   0.000
  S5                       502.95       0.00       0.00       0.00     502.68       0.00     502.68      424.77   213.38   0.999
  S6                      1061.54       0.00       0.00       0.00    1061.69       0.00    1061.69      368.94   262.37   1.000
  S7                      1025.22       0.00       0.00       0.00    1025.31       0.00    1025.31      371.68   262.35   1.000
  S8                      1033.18       0.00       0.00       0.00    1033.25       0.00    1033.25      322.89   232.04   1.000
  S9                       995.32       0.00       0.00       0.00     995.37       0.00     995.37      395.66   274.03   1.000
  S10                     1186.51       0.00       0.00       0.00    1186.73       0.00    1186.73      519.20   546.08   1.000
  S11                     1385.10       0.00       0.00       0.00    1385.52       0.00    1385.52      498.79   466.98   1.000
  S12                     1036.22       0.00       0.00       0.00    1036.14       0.00    1036.14      841.87   614.86   1.000
  S13                     1150.07       0.00       0.00       0.00    1149.95       0.00    1149.95     1129.83   806.26   1.000
  S14                      942.82       0.00       0.00       0.00     942.75       0.00     942.75      648.15   455.08   1.000
  S15                     1311.93       0.00       0.00       0.00    1311.77       0.00    1311.77     1613.49  1118.77   1.000
  S16                     1292.86       0.00       0.00       0.00    1293.18       0.00    1293.18      484.95   498.34   1.000
  S17                      770.39       0.00       0.00       0.00     770.36       0.00     770.36      381.33   362.19   1.000
  S18                      109.31       0.00       0.00       0.00     109.10       0.00     109.10       85.64    34.42   0.998
  S19                        0.00       0.00       0.00       0.00       0.00       0.00       0.00        0.00     0.00   0.000
  S20                        0.00       0.00       0.00       0.00       0.00       0.00       0.00        0.00     0.00   0.000
  S21                        0.00       0.00       0.00       0.00       0.00       0.00       0.00        0.00     0.00   0.000
  S22                        0.00       0.00       0.00       0.00       0.00       0.00       0.00        0.00     0.00   0.000
  S23                      746.94       0.00       0.00       0.00     746.24       0.00     746.24     2205.14  1031.99   0.999
  S24                     1070.66       0.00       0.00       0.00    1070.37       0.00    1070.37     1335.30   769.62   1.000
  S25                     1314.94       0.00       0.00       0.00    1314.53       0.00    1314.53     2343.16  1316.65   1.000
  S26                     1334.66       0.00       0.00       0.00    1333.96       0.00    1333.96     4141.96  2106.27   0.999
  S27                     1413.87       0.00       0.00       0.00    1413.56       0.00    1413.56     2540.89  1594.95   1.000
  S28                     1201.81       0.00       0.00       0.00    1201.10       0.00    1201.10     3990.69  2030.49   0.999
  S29                        0.00       0.00       0.00       0.00       0.00       0.00       0.00        0.00     0.00   0.000
  S30                        0.00       0.00       0.00       0.00       0.00       0.00       0.00        0.00     0.00   0.000
  S31                        0.00       0.00       0.00       0.00       0.00       0.00       0.00        0.00     0.00   0.000
  S32                        0.00       0.00       0.00       0.00       0.00       0.00       0.00        0.00     0.00   0.000
  S33                     1362.10       0.00       0.00       0.00    1363.25       0.00    1363.25      132.92   143.90   1.001
  S34                     1356.04       0.00       0.00       0.00    1358.31       0.00    1358.31       30.56    37.33   1.002
  S35                        0.00       0.00       0.00       0.00       0.00       0.00       0.00        0.00     0.00   0.000
  S36                        0.00       0.00       0.00       0.00       0.00       0.00       0.00        0.00     0.00   0.000
  S37                     1365.11       0.00       0.00       0.00    1366.04       0.00    1366.04      194.66   201.10   1.001
  S38                        0.00       0.00       0.00       0.00       0.00       0.00       0.00        0.00     0.00   0.000
  S39                        0.00       0.00       0.00       0.00       0.00       0.00       0.00        0.00     0.00   0.000
  
  
  ******************
  Node Depth Summary
  ******************
  
  ---------------------------------------------------------------------------------
                                 Average  Maximum  Maximum  Time of Max    Reported
                                   Depth    Depth      HGL   Occurrence   Max Depth
  Node                 Type       Meters   Meters   Meters  days hr:min      Meters
  ---------------------------------------------------------------------------------
  0                    JUNCTION     0.00     0.00  1900.00     0  00:00        0.00
  1                    JUNCTION     0.00     0.00  1731.39     0  00:00        0.00
  2                    JUNCTION     0.00     0.00  1624.09     0  00:00        0.00
  3                    JUNCTION     0.00     0.00  1516.79     0  00:00        0.00
  4                    JUNCTION     3.03    77.62  1487.11   259  02:33       64.52
  5                    JUNCTION     0.02     0.13  1900.13   259  03:02        0.13
  6                    JUNCTION     0.04     0.20  1710.87   259  03:05        0.20
  7                    JUNCTION     0.05     0.24  1587.77   259  03:08        0.24
  8                    JUNCTION     0.05     1.09  1465.49   259  04:46        1.08
  9                    JUNCTION     4.39   168.22  1509.48   259  00:51      124.21
  10                   JUNCTION     0.03     0.18  1700.18   262  21:00        0.18
  11                   JUNCTION     0.05     0.29  1551.91   262  21:03        0.29
  12                   JUNCTION     0.16     3.65  1445.28   262  23:05        3.65
  13                   JUNCTION     0.08     0.37  1332.01   262  21:02        0.37
  14                   JUNCTION     0.11     2.26  1223.91   259  06:18        2.25
  15                   JUNCTION     0.03     0.17  1700.17   262  21:00        0.17
  16                   JUNCTION     0.04     0.25  1493.00   262  21:02        0.25
  17                   JUNCTION     0.04     0.26  1360.26   262  21:05        0.26
  18                   JUNCTION     0.04     0.26  1248.65   262  21:07        0.26
  19                   JUNCTION     0.04     0.26  1137.04   262  21:12        0.26
  20                   JUNCTION     0.92    41.06  1487.07   259  02:33       28.01
  21                   JUNCTION    12.62   185.77  1485.77   254  21:45      174.01
  22                   JUNCTION    15.69   199.68  1479.68   254  21:45      194.01
  23                   JUNCTION    17.80   204.00  1474.00   163  21:50      204.00
  24                   JUNCTION    20.99   201.00  1441.00   163  19:29      201.00
  25                   JUNCTION    22.62   201.00  1411.00   162  18:19      201.00
  26                   JUNCTION     5.44    38.96  1165.74   235  22:10       16.08
  27                   JUNCTION    14.42   123.28  1228.28   221  17:52      118.84
  28                   JUNCTION     0.51    26.88  1124.75   262  19:02       24.29
  29                   JUNCTION     0.68    35.37  1109.91   262  21:12       34.93
  30                   JUNCTION     1.71    47.66  1098.86   262  21:12       47.05
  31                   JUNCTION    12.10    57.53  1085.39   262  21:12       56.73
  32                   JUNCTION     0.07     0.48  1142.48   259  03:00        0.48
  33                   JUNCTION    21.21    22.50  1142.50   259  03:00       22.50
  34                   JUNCTION     2.52    15.23  1095.23   262  21:13       15.15
  35                   JUNCTION     0.36     0.92  1035.92   262  21:12        0.91
  36                   OUTFALL      0.07     0.47  1120.47   259  03:00        0.47
  37                   OUTFALL      0.27     0.63  1080.63   262  21:13        0.63
  38                   OUTFALL      0.27     0.72  1035.72   262  21:12        0.71
  
  
  *******************
  Node Inflow Summary
  *******************
  
  -------------------------------------------------------------------------------------------------
                                  Maximum  Maximum                  Lateral       Total        Flow
                                  Lateral    Total  Time of Max      Inflow      Inflow     Balance
                                   Inflow   Inflow   Occurrence      Volume      Volume       Error
  Node                 Type           LPS      LPS  days hr:min    10^6 ltr    10^6 ltr     Percent
  -------------------------------------------------------------------------------------------------
  0                    JUNCTION      0.00     0.00     0  00:00           0           0       0.000 ltr
  1                    JUNCTION      0.00     0.00     0  00:00           0           0       0.000 ltr
  2                    JUNCTION      0.00     0.00     0  00:00           0           0       0.000 ltr
  3                    JUNCTION      0.00     0.00     0  00:00           0           0       0.000 ltr
  4                    JUNCTION    213.87  2512.98   312  01:57         426         533      -0.202
  5                    JUNCTION    263.34   263.34   259  03:00         371         371      -0.004
  6                    JUNCTION    263.33   525.06   259  03:01         374         745      -0.005
  7                    JUNCTION    233.11   754.33   259  03:04         325    1.07e+03      -0.002
  8                    JUNCTION    274.52  1439.07   227  14:04         398    1.47e+03      -0.060
  9                    JUNCTION    546.40  1781.62   239  05:38         520    2.01e+03       0.014
  10                   JUNCTION    467.05   467.05   262  21:00         499         499      -0.010
  11                   JUNCTION    615.26  1080.15   262  21:00         843    1.34e+03      -0.005
  12                   JUNCTION    806.55  1875.61   262  21:01    1.13e+03    2.47e+03       0.005
  13                   JUNCTION    455.56  1712.17   262  21:00         650    3.12e+03      -0.002
  14                   JUNCTION   1118.88  2827.42   262  21:00    1.61e+03    4.74e+03      -0.011
  15                   JUNCTION    498.34   498.34   262  21:00         485         485      -0.007
  16                   JUNCTION    362.19   858.91   262  21:00         381         866      -0.004
  17                   JUNCTION     34.42   878.76   262  21:02        85.6         952       0.001
  18                   JUNCTION      0.00   876.77   262  21:05           0         952      -0.003
  19                   JUNCTION      0.00   875.46   262  21:08           0         952       0.004
  20                   JUNCTION      0.00  2373.76   254  20:42           0        87.8      -0.464
  21                   JUNCTION      0.00  2542.75   312  01:57           0    1.06e+03       0.248
  22                   JUNCTION   1032.03  2397.87   312  01:57    2.21e+03    3.37e+03      -0.033
  23                   JUNCTION    769.62  2186.47   254  21:45    1.34e+03    4.43e+03      -0.008
  24                   JUNCTION   1317.07  2040.02   259  03:00    2.34e+03    6.25e+03      -0.000
  25                   JUNCTION   2106.53  3961.10   259  03:00    4.14e+03    1.18e+04       0.003
  26                   JUNCTION   1594.95  5408.11   259  03:00    2.54e+03    1.48e+04      -0.074
  27                   JUNCTION   2030.70  4027.87   259  06:43    3.99e+03    1.46e+04      -0.008
  28                   JUNCTION      0.00  1935.38   259  08:58           0    1.35e+04       0.000
  29                   JUNCTION      0.00   816.22   259  09:44           0    6.37e+03      -0.000
  30                   JUNCTION      0.00   816.22   259  09:44           0    6.37e+03      -0.000
  31                   JUNCTION      0.00  1547.23   262  21:12           0    7.32e+03       0.080
  32                   JUNCTION    143.90  5589.37   259  03:00         133    9.13e+03      -0.005
  33                   JUNCTION     37.33    37.33   259  03:00        30.6        30.6       0.000
  34                   JUNCTION      0.00  1209.14   262  21:13           0    7.16e+03       0.004
  35                   JUNCTION      0.00  1547.23   262  21:12           0    7.32e+03       0.000
  36                   OUTFALL     201.10  5788.78   259  03:00         195    9.31e+03       0.000
  37                   OUTFALL       0.00  1209.14   262  21:13           0    7.16e+03       0.000
  38                   OUTFALL       0.00  1547.19   262  21:12           0    7.32e+03       0.000
  
  
  **********************
  Node Surcharge Summary
  **********************
  
  Surcharging occurs when water rises above the top of the highest conduit.
  ---------------------------------------------------------------------
                                               Max. Height   Min. Depth
                                   Hours       Above Crown    Below Rim
  Node                 Type      Surcharged         Meters       Meters
  ---------------------------------------------------------------------
  4                    JUNCTION      366.31         73.617        0.000
  9                    JUNCTION      417.05        164.218        0.000
  20                   JUNCTION      235.75         37.060        0.000
  21                   JUNCTION      591.07        181.767        0.000
  22                   JUNCTION      950.83        195.677        0.000
  23                   JUNCTION     1271.67        200.000        0.000
  24                   JUNCTION     1568.76        200.000        0.000
  25                   JUNCTION     1639.23        200.000        0.000
  26                   JUNCTION     2252.50         34.955        0.000
  27                   JUNCTION     3013.58        119.284        0.000
  28                   JUNCTION      110.69         25.881        0.000
  29                   JUNCTION      155.56         34.373        0.000
  30                   JUNCTION     1303.14         46.658        0.000
  31                   JUNCTION     7408.60         53.526        0.000
  33                   JUNCTION     6947.86         21.495        0.000
  34                   JUNCTION     3625.62         14.232        0.000
  
  
  *********************
  Node Flooding Summary
  *********************
  
  Flooding refers to all water that overflows a node, whether it ponds or not.
  --------------------------------------------------------------------------
                                                             Total   Maximum
                                 Maximum   Time of Max       Flood    Ponded
                        Hours       Rate    Occurrence      Volume     Depth
  Node                 Flooded       LPS   days hr:min    10^6 ltr    Meters
  --------------------------------------------------------------------------
  23                    152.00   1493.52    254  21:45     227.689   200.000
  24                    242.04   1264.93    259  03:00     421.744   200.000
  25                    219.80   2224.63    259  03:00     597.049   200.000
  
  
  ***********************
  Outfall Loading Summary
  ***********************
  
  -----------------------------------------------------------
                         Flow       Avg       Max       Total
                         Freq      Flow      Flow      Volume
  Outfall Node           Pcnt       LPS       LPS    10^6 ltr
  -----------------------------------------------------------
  36                    98.10    409.20   5788.78    9310.269
  37                    99.98    305.08   1209.14    7156.007
  38                    99.86    312.70   1547.19    7315.211
  -----------------------------------------------------------
  System                99.31   1026.98   1547.19   23781.486
  
  
  ********************
  Link Flow Summary
  ********************
  
  -----------------------------------------------------------------------------
                                 Maximum  Time of Max   Maximum    Max/    Max/
                                  |Flow|   Occurrence   |Veloc|    Full    Full
  Link                 Type          LPS  days hr:min     m/sec    Flow   Depth
  -----------------------------------------------------------------------------
  0                    CONDUIT      0.00     0  00:00      0.00    0.00    0.00
  1                    CONDUIT      0.00     0  00:00      0.00    0.00    0.00
  2                    CONDUIT      0.00     0  00:00      0.00    0.00    0.00
  3                    CONDUIT      0.00     0  00:00      0.00    0.00    0.50
  4                    CONDUIT   2366.93   312  01:57      1.10    0.02    1.00
  5                    CONDUIT    262.38   259  03:02      1.48    0.00    0.04
  6                    CONDUIT    522.89   259  03:05      1.94    0.01    0.05
  7                    CONDUIT    752.41   259  03:08      2.10    0.01    0.16
  8                    CONDUIT    874.00   259  08:12      1.10    0.01    0.64
  9                    CONDUIT   1084.59   259  04:46      1.38    0.63    1.00
  10                   CONDUIT    465.32   262  21:00      1.53    0.00    0.06
  11                   CONDUIT   1073.30   262  21:03      0.84    0.01    0.49
  12                   CONDUIT   1334.10   259  02:30      2.59    0.90    0.68
  13                   CONDUIT   1710.04   262  21:02      2.61    0.02    0.33
  14                   CONDUIT   2813.87   263  00:58      0.39    0.03    0.78
  15                   CONDUIT    497.01   262  21:00      1.91    0.00    0.05
  16                   CONDUIT    855.22   262  21:02      2.54    0.01    0.06
  17                   CONDUIT    876.77   262  21:05      2.55    0.01    0.06
  18                   CONDUIT    875.46   262  21:08      2.52    0.01    0.06
  19                   CONDUIT    873.14   262  21:12      0.65    0.01    0.53
  20                   CONDUIT   2373.76   254  20:42      0.38    0.02    1.00
  21                   CONDUIT   2397.64   312  01:57      0.51    0.06    1.00
  22                   CONDUIT   1878.93   262  21:00      0.49    0.06    1.00
  23                   CONDUIT   1303.44   262  21:00      1.66    1.88    1.00
  24                   CONDUIT   1053.43   188  02:32      1.34    1.35    1.00
  25                   CONDUIT   1738.51   187  19:10      2.21    1.78    1.00
  26                   CONDUIT   2094.12   259  06:22      2.67    1.91    1.00
  27                   CONDUIT   1935.38   259  08:58      2.46    3.83    1.00
  28                   CONDUIT    816.22   259  09:44      1.30    0.88    1.00
  29                   CONDUIT    816.22   259  09:44      1.29    0.83    1.00
  30                   CONDUIT    816.22   259  09:44      3.28    0.91    1.00
  31                   CONDUIT   5408.15   259  03:00      0.75    0.09    0.56
  32                   CONDUIT     37.33   259  03:00      0.07    0.02    0.74
  33                   CONDUIT   1209.14   262  21:13      1.54    1.22    1.00
  34                   CONDUIT   1547.23   262  21:12      2.00    2.80    0.96
  35                   CONDUIT   5588.06   259  03:00      6.69    0.03    0.12
  36                   CONDUIT   1209.14   262  21:13      1.76  213.66    0.82
  37                   CONDUIT   1547.19   262  21:12      2.25   22.20    0.82
  
  
  ***************************
  Flow Classification Summary
  ***************************
  
  -------------------------------------------------------------------------------------
                      Adjusted    ---------- Fraction of Time in Flow Class ---------- 
                       /Actual         Up    Down  Sub   Sup   Up    Down  Norm  Inlet 
  Conduit               Length    Dry  Dry   Dry   Crit  Crit  Crit  Crit  Ltd   Ctrl  
  -------------------------------------------------------------------------------------
  0                       1.00   1.00  0.00  0.00  0.00  0.00  0.00  0.00  0.00  0.00
  1                       1.00   1.00  0.00  0.00  0.00  0.00  0.00  0.00  0.00  0.00
  2                       1.00   1.00  0.00  0.00  0.00  0.00  0.00  0.00  0.00  0.00
  3                       1.00   0.00  1.00  0.00  0.00  0.00  0.00  0.00  0.00  0.00
  4                       1.00   0.00  0.00  0.00  0.90  0.10  0.00  0.00  0.93  0.00
  5                       1.00   0.00  0.00  0.00  0.63  0.37  0.00  0.00  0.98  0.00
  6                       1.00   0.00  0.00  0.00  0.41  0.59  0.00  0.00  0.98  0.00
  7                       1.00   0.00  0.00  0.00  0.34  0.66  0.00  0.00  0.98  0.00
  8                       1.00   0.00  0.00  0.00  1.00  0.00  0.00  0.00  0.99  0.00
  9                       1.00   0.00  0.00  0.00  1.00  0.00  0.00  0.00  0.92  0.00
  10                      1.00   0.00  0.00  0.00  0.90  0.10  0.00  0.00  0.99  0.00
  11                      1.00   0.00  0.00  0.00  1.00  0.00  0.00  0.00  0.99  0.00
  12                      1.00   0.00  0.00  0.00  0.00  1.00  0.00  0.00  0.00  0.00
  13                      1.00   0.00  0.00  0.00  0.25  0.74  0.00  0.00  0.99  0.00
  14                      1.00   0.00  0.00  0.00  1.00  0.00  0.00  0.00  0.99  0.00
  15                      1.00   0.00  0.00  0.00  0.58  0.42  0.00  0.00  0.99  0.00
  16                      1.00   0.00  0.00  0.00  0.32  0.68  0.00  0.00  0.96  0.00
  17                      1.00   0.00  0.00  0.00  0.18  0.82  0.00  0.00  0.02  0.00
  18                      1.00   0.00  0.00  0.00  0.20  0.80  0.00  0.00  0.74  0.00
  19                      1.00   0.00  0.00  0.00  1.00  0.00  0.00  0.00  0.99  0.00
  20                      1.00   0.00  0.92  0.00  0.08  0.00  0.00  0.00  0.46  0.00
  21                      1.00   0.00  0.00  0.00  1.00  0.00  0.00  0.00  0.87  0.00
  22                      1.00   0.00  0.00  0.00  1.00  0.00  0.00  0.00  0.83  0.00
  23                      1.00   0.00  0.00  0.00  1.00  0.00  0.00  0.00  0.80  0.00
  24                      1.00   0.00  0.00  0.00  1.00  0.00  0.00  0.00  0.79  0.00
  25                      1.00   0.00  0.00  0.00  1.00  0.00  0.00  0.00  0.66  0.00
  26                      1.00   0.00  0.00  0.00  1.00  0.00  0.00  0.00  0.66  0.00
  27                      1.00   0.00  0.00  0.00  1.00  0.00  0.00  0.00  0.00  0.00
  28                      1.00   0.00  0.00  0.00  1.00  0.00  0.00  0.00  0.01  0.00
  29                      1.00   0.00  0.00  0.00  1.00  0.00  0.00  0.00  0.96  0.00
  30                      1.00   0.00  0.00  0.00  1.00  0.00  0.00  0.00  0.76  0.00
  31                      1.00   0.00  0.02  0.00  0.98  0.00  0.00  0.00  0.73  0.00
  32                      1.00   0.00  0.01  0.00  0.99  0.00  0.00  0.00  0.11  0.00
  33                      1.00   0.00  0.00  0.00  1.00  0.00  0.00  0.00  0.98  0.00
  34                      1.00   0.00  0.00  0.00  1.00  0.00  0.00  0.00  0.00  0.00
  35                      1.00   0.02  0.00  0.00  0.01  0.97  0.00  0.00  0.00  0.00
  36                      1.00   0.00  0.00  0.00  1.00  0.00  0.00  0.00  0.00  0.00
  37                      1.00   0.00  0.00  0.00  1.00  0.00  0.00  0.00  0.00  0.00
  
  
  *************************
  Conduit Surcharge Summary
  *************************
  
  ----------------------------------------------------------------------------
                                                           Hours        Hours 
                         --------- Hours Full --------   Above Full   Capacity
  Conduit                Both Ends  Upstream  Dnstream   Normal Flow   Limited
  ----------------------------------------------------------------------------
  4                         366.31    366.31    591.07      0.01         0.01
  8                           0.01      0.01    417.05      0.01         0.01
  9                         572.08    572.08   1639.23      0.01         0.01
  12                          0.01     16.53      0.01      0.01         0.01
  14                          0.01      0.01   3013.58      0.01         0.01
  19                          0.01      0.01   7408.60      0.01         0.01
  20                        235.75    235.75    900.12      0.01         0.01
  21                        591.07    591.07    950.83      0.01         0.01
  22                        950.83    950.83   1271.67      0.01         0.01
  23                       1487.99   1487.99   1568.76    373.78       386.98
  24                       1568.76   1568.76   1639.23    375.15       395.05
  25                       1639.23   1639.23   2593.53   1510.73      1519.73
  26                       2593.53   2593.53   3611.53    104.14         0.01
  27                        110.68   3611.53    110.68   2924.05       110.68
  28                        110.68    110.68    155.56      0.01         0.01
  29                        155.56    155.56   1303.12      0.01         0.01
  30                       1303.12   1303.12   7818.78      0.01         0.01
  31                          0.01      0.01   2252.49      0.01         0.01
  32                          0.01      0.01   6947.86      0.01         0.01
  33                        110.68    110.68   3625.61     42.02        43.32
  34                          0.01      0.01   7398.53   1625.62         0.01
  36                          0.01   3625.61      0.01   7224.54         0.01
  37                          0.01      0.01      0.01   4572.40         0.01
  

  Analysis begun on:  Wed Apr 15 07:29:11 2020
  Analysis ended on:  Wed Apr 15 08:00:58 2020
  Total elapsed time: 00:31:47