
  EPA STORM WATER MANAGEMENT MODEL - VERSION 5.1 (Build 5.1.013)
  --------------------------------------------------------------

  Template input file for Gottesacker karst system.  
  Based on input files created by Zhao Chen. 
  Modified by Chloe Fandel: 
  
  WARNING 04: minimum elevation drop used for Conduit 36
  WARNING 04: minimum elevation drop used for Conduit 37
  
  *********************************************************
  NOTE: The summary statistics displayed in this report are
  based on results found at every computational time step,  
  not just on results from each reporting time step.
  *********************************************************
  
  ****************
  Analysis Options
  ****************
  Flow Units ............... LPS
  Process Models:
    Rainfall/Runoff ........ YES
    RDII ................... NO
    Snowmelt ............... NO
    Groundwater ............ NO
    Flow Routing ........... YES
    Ponding Allowed ........ NO
    Water Quality .......... NO
  Infiltration Method ...... HORTON
  Flow Routing Method ...... DYNWAVE
  Surcharge Method ......... EXTRAN
  Starting Date ............ 11/14/2013 00:00:00
  Ending Date .............. 10/11/2014 00:00:00
  Antecedent Dry Days ...... 0.0
  Report Time Step ......... 01:00:00
  Wet Time Step ............ 00:30:00
  Dry Time Step ............ 01:00:00
  Routing Time Step ........ 30.00 sec
  Variable Time Step ....... YES
  Maximum Trials ........... 8
  Number of Threads ........ 4
  Head Tolerance ........... 0.001524 m
  
  
  **************************        Volume         Depth
  Runoff Quantity Continuity     hectare-m            mm
  **************************     ---------       -------
  Total Precipitation ......      2501.060       761.068
  Evaporation Loss .........         0.000         0.000
  Infiltration Loss ........         0.000         0.000
  Surface Runoff ...........      2500.232       760.816
  Final Storage ............         1.354         0.412
  Continuity Error (%) .....        -0.021
  
  
  **************************        Volume        Volume
  Flow Routing Continuity        hectare-m      10^6 ltr
  **************************     ---------     ---------
  Dry Weather Inflow .......         0.000         0.000
  Wet Weather Inflow .......      2500.229     25002.547
  Groundwater Inflow .......         0.000         0.000
  RDII Inflow ..............         0.000         0.000
  External Inflow ..........         1.783        17.832
  External Outflow .........      2285.477     22855.011
  Flooding Loss ............       217.271      2172.732
  Evaporation Loss .........         0.000         0.000
  Exfiltration Loss ........         0.000         0.000
  Initial Stored Volume ....         0.000         0.000
  Final Stored Volume ......         0.116         1.156
  Continuity Error (%) .....        -0.034
  
  
  *************************
  Highest Continuity Errors
  *************************
  Node 3 (11.87%)
  
  
  ***************************
  Time-Step Critical Elements
  ***************************
  Link 37 (99.97%)
  
  
  ********************************
  Highest Flow Instability Indexes
  ********************************
  All links are stable.
  
  
  *************************
  Routing Time Step Summary
  *************************
  Minimum Time Step           :     0.45 sec
  Average Time Step           :     0.60 sec
  Maximum Time Step           :    30.00 sec
  Percent in Steady State     :     0.30
  Average Iterations per Step :     2.11
  Percent Not Converging      :     0.88
  
  
  ***************************
  Subcatchment Runoff Summary
  ***************************
  
  ------------------------------------------------------------------------------------------------------------------------------
                            Total      Total      Total      Total     Imperv       Perv      Total       Total     Peak  Runoff
                           Precip      Runon       Evap      Infil     Runoff     Runoff     Runoff      Runoff   Runoff   Coeff
  Subcatchment                 mm         mm         mm         mm         mm         mm         mm    10^6 ltr      LPS
  ------------------------------------------------------------------------------------------------------------------------------
  S1                         0.00       0.00       0.00       0.00       0.00       0.00       0.00        0.00     0.00   0.000
  S2                         0.00       0.00       0.00       0.00       0.00       0.00       0.00        0.00     0.00   0.000
  S3                         0.00       0.00       0.00       0.00       0.00       0.00       0.00        0.00     0.00   0.000
  S4                         0.00       0.00       0.00       0.00       0.00       0.00       0.00        0.00     0.00   0.000
  S5                       502.95       0.00       0.00       0.00     502.68       0.00     502.68      424.77   213.38   0.999
  S6                      1061.54       0.00       0.00       0.00    1061.69       0.00    1061.69      368.94   262.37   1.000
  S7                      1025.22       0.00       0.00       0.00    1025.31       0.00    1025.31      371.68   262.35   1.000
  S8                      1033.18       0.00       0.00       0.00    1033.25       0.00    1033.25      322.89   232.04   1.000
  S9                       995.32       0.00       0.00       0.00     995.37       0.00     995.37      395.66   274.03   1.000
  S10                     1186.51       0.00       0.00       0.00    1186.73       0.00    1186.73      519.20   546.08   1.000
  S11                     1385.10       0.00       0.00       0.00    1385.52       0.00    1385.52      498.79   466.98   1.000
  S12                     1036.22       0.00       0.00       0.00    1036.14       0.00    1036.14      841.87   614.86   1.000
  S13                     1150.07       0.00       0.00       0.00    1149.95       0.00    1149.95     1129.83   806.26   1.000
  S14                      942.82       0.00       0.00       0.00     942.75       0.00     942.75      648.15   455.08   1.000
  S15                     1311.93       0.00       0.00       0.00    1311.77       0.00    1311.77     1613.49  1118.77   1.000
  S16                     1292.86       0.00       0.00       0.00    1293.18       0.00    1293.18      484.95   498.34   1.000
  S17                      770.39       0.00       0.00       0.00     770.36       0.00     770.36      381.33   362.19   1.000
  S18                      109.31       0.00       0.00       0.00     109.10       0.00     109.10       85.64    34.42   0.998
  S19                        0.00       0.00       0.00       0.00       0.00       0.00       0.00        0.00     0.00   0.000
  S20                        0.00       0.00       0.00       0.00       0.00       0.00       0.00        0.00     0.00   0.000
  S21                        0.00       0.00       0.00       0.00       0.00       0.00       0.00        0.00     0.00   0.000
  S22                        0.00       0.00       0.00       0.00       0.00       0.00       0.00        0.00     0.00   0.000
  S23                      746.94       0.00       0.00       0.00     746.24       0.00     746.24     2205.14  1031.99   0.999
  S24                     1070.66       0.00       0.00       0.00    1070.37       0.00    1070.37     1335.30   769.62   1.000
  S25                     1314.94       0.00       0.00       0.00    1314.53       0.00    1314.53     2343.16  1316.65   1.000
  S26                     1334.66       0.00       0.00       0.00    1333.96       0.00    1333.96     4141.96  2106.27   0.999
  S27                     1413.87       0.00       0.00       0.00    1413.56       0.00    1413.56     2540.89  1594.95   1.000
  S28                     1201.81       0.00       0.00       0.00    1201.10       0.00    1201.10     3990.69  2030.49   0.999
  S29                        0.00       0.00       0.00       0.00       0.00       0.00       0.00        0.00     0.00   0.000
  S30                        0.00       0.00       0.00       0.00       0.00       0.00       0.00        0.00     0.00   0.000
  S31                        0.00       0.00       0.00       0.00       0.00       0.00       0.00        0.00     0.00   0.000
  S32                        0.00       0.00       0.00       0.00       0.00       0.00       0.00        0.00     0.00   0.000
  S33                     1362.10       0.00       0.00       0.00    1363.25       0.00    1363.25      132.92   143.90   1.001
  S34                     1356.04       0.00       0.00       0.00    1358.31       0.00    1358.31       30.56    37.33   1.002
  S35                        0.00       0.00       0.00       0.00       0.00       0.00       0.00        0.00     0.00   0.000
  S36                        0.00       0.00       0.00       0.00       0.00       0.00       0.00        0.00     0.00   0.000
  S37                     1365.11       0.00       0.00       0.00    1366.04       0.00    1366.04      194.66   201.10   1.001
  S38                        0.00       0.00       0.00       0.00       0.00       0.00       0.00        0.00     0.00   0.000
  S39                        0.00       0.00       0.00       0.00       0.00       0.00       0.00        0.00     0.00   0.000
  
  
  ******************
  Node Depth Summary
  ******************
  
  ---------------------------------------------------------------------------------
                                 Average  Maximum  Maximum  Time of Max    Reported
                                   Depth    Depth      HGL   Occurrence   Max Depth
  Node                 Type       Meters   Meters   Meters  days hr:min      Meters
  ---------------------------------------------------------------------------------
  0                    JUNCTION     0.00     0.00  1900.00     0  00:00        0.00
  1                    JUNCTION     0.00     0.00  1731.39     0  00:00        0.00
  2                    JUNCTION     0.00     0.00  1624.09     0  00:00        0.00
  3                    JUNCTION     0.00     0.00  1516.79   262  19:35        0.00
  4                    JUNCTION     4.37   135.75  1545.24   262  19:19       75.08
  5                    JUNCTION     0.02     0.13  1900.13   259  03:02        0.13
  6                    JUNCTION     0.04     0.20  1710.87   259  03:05        0.20
  7                    JUNCTION     0.04     0.24  1587.77   259  03:08        0.24
  8                    JUNCTION     0.11     0.58  1464.98   259  03:23        0.56
  9                    JUNCTION     4.82   115.71  1456.97   262  19:31       72.76
  10                   JUNCTION     0.03     0.18  1700.18   262  21:01        0.18
  11                   JUNCTION     0.24   159.22  1710.84   262  21:09      131.49
  12                   JUNCTION     1.77   201.00  1642.63   259  03:53      201.00
  13                   JUNCTION     3.15   201.00  1532.64   227  19:59      201.00
  14                   JUNCTION     4.76   201.00  1422.65   168  21:19      201.00
  15                   JUNCTION     0.03     0.17  1700.17   262  21:00        0.17
  16                   JUNCTION     0.08     0.51  1493.26   262  21:05        0.51
  17                   JUNCTION     0.09     0.60  1360.60   262  21:09        0.59
  18                   JUNCTION     0.04     0.26  1248.65   262  21:12        0.26
  19                   JUNCTION     0.09     0.53  1137.31   262  21:18        0.52
  20                   JUNCTION     1.84   119.41  1565.42   262  19:35       37.13
  21                   JUNCTION    16.49   201.00  1501.00   158  20:53      183.14
  22                   JUNCTION    19.39   201.00  1481.00   158  20:53      201.00
  23                   JUNCTION    20.11   201.00  1471.00   158  20:53      201.00
  24                   JUNCTION    22.14   201.00  1441.00   158  20:45      201.00
  25                   JUNCTION    23.33   204.00  1414.00   158  20:45      204.00
  26                   JUNCTION    12.95   176.61  1303.39   259  03:00      176.61
  27                   JUNCTION    20.18   201.00  1306.00   227  17:55      201.00
  28                   JUNCTION     1.51    50.90  1148.77   262  21:19       50.31
  29                   JUNCTION     2.09    56.56  1131.09   262  21:19       55.45
  30                   JUNCTION     3.75    64.28  1115.49   262  21:19       62.72
  31                   JUNCTION    12.89    68.60  1096.47   262  21:19       66.49
  32                   JUNCTION     0.17     7.49  1149.49   259  03:00        7.49
  33                   JUNCTION    20.91    29.75  1149.75   262  19:32       29.50
  34                   JUNCTION     3.06    23.66  1103.66   262  21:19       23.47
  35                   JUNCTION     0.37     0.97  1035.97   262  21:19        0.96
  36                   OUTFALL      0.12     0.95  1120.95   259  03:00        0.95
  37                   OUTFALL      0.28     0.72  1080.72   262  21:19        0.72
  38                   OUTFALL      0.28     0.74  1035.74   262  21:19        0.74
  
  
  *******************
  Node Inflow Summary
  *******************
  
  -------------------------------------------------------------------------------------------------
                                  Maximum  Maximum                  Lateral       Total        Flow
                                  Lateral    Total  Time of Max      Inflow      Inflow     Balance
                                   Inflow   Inflow   Occurrence      Volume      Volume       Error
  Node                 Type           LPS      LPS  days hr:min    10^6 ltr    10^6 ltr     Percent
  -------------------------------------------------------------------------------------------------
  0                    JUNCTION      0.00     0.00     0  00:00           0           0       0.000 ltr
  1                    JUNCTION      0.00     0.00     0  00:00           0           0       0.000 ltr
  2                    JUNCTION      0.00     0.00     0  00:00           0           0       0.000 ltr
  3                    JUNCTION      0.00    72.49   262  19:19           0    0.000161      13.470
  4                    JUNCTION    213.87   659.21   286  02:46         426         432      -0.031
  5                    JUNCTION    263.34   263.34   259  03:00         371         371      -0.003
  6                    JUNCTION    263.33   525.06   259  03:01         374         745       0.000
  7                    JUNCTION    233.11   754.33   259  03:04         325    1.07e+03      -0.001
  8                    JUNCTION    274.52  1021.53   259  03:06         398    1.47e+03      -0.012
  9                    JUNCTION    546.40  2800.59   262  19:31         520    2.05e+03      -0.043
  10                   JUNCTION    467.05   467.05   262  21:00         499         499      -0.048
  11                   JUNCTION    615.26  1078.87   262  21:00         843    1.34e+03       0.013
  12                   JUNCTION    806.55  1848.89   262  21:10    1.13e+03    2.47e+03      -0.001
  13                   JUNCTION    455.56  1914.04   262  21:10         650    3.12e+03      -0.001
  14                   JUNCTION   1118.88  2572.23   262  21:10    1.61e+03    4.73e+03      -0.003
  15                   JUNCTION    498.34   498.34   262  21:00         485         485      -0.012
  16                   JUNCTION    362.19   858.70   262  21:00         381         866       0.004
  17                   JUNCTION     34.42   872.42   262  21:05        85.6         952       0.002
  18                   JUNCTION      0.00   869.05   262  21:10           0         952      -0.004
  19                   JUNCTION      0.00   868.34   262  21:12           0         952       0.005
  20                   JUNCTION      0.00   390.18   168  20:07           0        8.91      -0.936
  21                   JUNCTION      0.00  1044.88   262  19:04           0         480       0.056
  22                   JUNCTION   1032.03  1374.36   262  18:53    2.21e+03    2.68e+03      -0.006
  23                   JUNCTION    769.62  1705.76   262  18:50    1.34e+03    3.83e+03      -0.002
  24                   JUNCTION   1317.07  2006.38   259  03:00    2.34e+03    5.97e+03      -0.003
  25                   JUNCTION   2106.53  4194.89   259  03:00    4.14e+03    1.15e+04      -0.058
  26                   JUNCTION   1594.95  3086.31   259  03:00    2.54e+03    1.33e+04      -0.002
  27                   JUNCTION   2030.70  3548.71   259  03:00    3.99e+03    1.53e+04       0.001
  28                   JUNCTION      0.00  2409.46   254  20:36           0     1.5e+04      -0.000
  29                   JUNCTION      0.00   935.25   254  20:36           0    6.97e+03      -0.000
  30                   JUNCTION      0.00   935.24   254  20:36           0    6.97e+03      -0.000
  31                   JUNCTION      0.00  1664.75   262  21:18           0    7.93e+03       0.008
  32                   JUNCTION    143.90  3267.50   259  03:00         133    6.75e+03      -0.001
  33                   JUNCTION     37.33    37.33   259  03:00        30.6        30.6       0.000
  34                   JUNCTION      0.00  1557.27   262  21:19           0    7.99e+03       0.006
  35                   JUNCTION      0.00  1664.74   262  21:18           0    7.92e+03       0.000
  36                   OUTFALL     201.10  3468.60   259  03:00         195    6.94e+03       0.000
  37                   OUTFALL       0.00  1557.27   262  21:19           0    7.99e+03       0.000
  38                   OUTFALL       0.00  1664.73   262  21:19           0    7.92e+03       0.000
  
  
  **********************
  Node Surcharge Summary
  **********************
  
  Surcharging occurs when water rises above the top of the highest conduit.
  ---------------------------------------------------------------------
                                               Max. Height   Min. Depth
                                   Hours       Above Crown    Below Rim
  Node                 Type      Surcharged         Meters       Meters
  ---------------------------------------------------------------------
  4                    JUNCTION      450.73        134.745        0.000
  9                    JUNCTION      480.09        111.706        0.000
  11                   JUNCTION       14.98        155.221        0.000
  12                   JUNCTION      111.06        200.000        0.000
  13                   JUNCTION      151.16        200.000        0.000
  14                   JUNCTION      268.90        200.000        0.000
  20                   JUNCTION      395.82        118.414        0.000
  21                   JUNCTION      827.77        200.000        0.000
  22                   JUNCTION      934.39        200.000        0.000
  23                   JUNCTION      991.94        200.000        0.000
  24                   JUNCTION     1064.18        200.000        0.000
  25                   JUNCTION     1143.91        200.000        0.000
  26                   JUNCTION     2310.86        175.605        0.000
  27                   JUNCTION     3312.74        200.000        0.000
  28                   JUNCTION      557.21         49.904        0.000
  29                   JUNCTION      723.18         55.557        0.000
  30                   JUNCTION     1619.53         63.285        0.000
  31                   JUNCTION     7845.27         67.600        0.000
  32                   JUNCTION       88.17          6.490        0.000
  33                   JUNCTION     6968.98         28.751        0.000
  34                   JUNCTION     3391.02         22.664        0.000
  
  
  *********************
  Node Flooding Summary
  *********************
  
  Flooding refers to all water that overflows a node, whether it ponds or not.
  --------------------------------------------------------------------------
                                                             Total   Maximum
                                 Maximum   Time of Max       Flood    Ponded
                        Hours       Rate    Occurrence      Volume     Depth
  Node                 Flooded       LPS   days hr:min    10^6 ltr    Meters
  --------------------------------------------------------------------------
  12                      1.40    379.50    262  21:10       0.857   200.000
  13                      6.14    435.46    262  21:10       4.058   200.000
  14                     76.24   1054.22    262  21:10      92.191   200.000
  21                      0.01    763.52    262  19:06       0.004   200.000
  22                    207.57   1109.02    262  18:54     155.292   200.000
  23                    252.53   1347.17    262  18:51     192.434   200.000
  24                    385.25   1271.06    259  03:00     666.722   200.000
  25                    339.35   3079.59    259  03:00    1043.745   200.000
  27                     19.70    778.80    259  03:00      17.419   200.000
  
  
  ***********************
  Outfall Loading Summary
  ***********************
  
  -----------------------------------------------------------
                         Flow       Avg       Max       Total
                         Freq      Flow      Flow      Volume
  Outfall Node           Pcnt       LPS       LPS    10^6 ltr
  -----------------------------------------------------------
  36                    95.99    304.86   3468.60    6937.466
  37                    99.98    333.86   1557.27    7992.807
  38                    99.97    331.16   1664.73    7924.632
  -----------------------------------------------------------
  System                98.65    969.89   1664.73   22854.906
  
  
  ********************
  Link Flow Summary
  ********************
  
  -----------------------------------------------------------------------------
                                 Maximum  Time of Max   Maximum    Max/    Max/
                                  |Flow|   Occurrence   |Veloc|    Full    Full
  Link                 Type          LPS  days hr:min     m/sec    Flow   Depth
  -----------------------------------------------------------------------------
  0                    CONDUIT      0.00     0  00:00      0.00    0.00    0.00
  1                    CONDUIT      0.00     0  00:00      0.00    0.00    0.00
  2                    CONDUIT      0.00     0  00:00      0.00    0.00    0.00
  3                    CONDUIT     72.49   262  19:19      0.18    0.04    0.50
  4                    CONDUIT    570.41   286  02:45      0.98    0.30    1.00
  5                    CONDUIT    262.38   259  03:02      1.48    0.00    0.04
  6                    CONDUIT    522.89   259  03:05      1.94    0.01    0.05
  7                    CONDUIT    752.43   259  03:08      1.15    0.01    0.10
  8                    CONDUIT   1004.04   259  03:23      2.27    0.60    0.79
  9                    CONDUIT   1711.26   262  19:31      0.43    0.02    1.00
  10                   CONDUIT    464.30   262  21:01      0.76    0.00    0.52
  11                   CONDUIT   1060.97   262  21:10      1.44    0.70    1.00
  12                   CONDUIT   1469.38   262  21:10      1.87    0.99    1.00
  13                   CONDUIT   1478.58   227  20:00      1.88    0.99    1.00
  14                   CONDUIT   1790.53   262  18:59      2.28    1.17    1.00
  15                   CONDUIT    496.84   262  21:00      0.99    0.00    0.09
  16                   CONDUIT    848.88   262  21:05      1.91    0.51    0.55
  17                   CONDUIT    869.05   262  21:10      2.71    0.53    0.43
  18                   CONDUIT    868.34   262  21:12      1.36    0.01    0.10
  19                   CONDUIT    863.60   262  21:18      1.34    0.55    0.77
  20                   CONDUIT    390.18   168  20:07      0.80    0.23    1.00
  21                   CONDUIT    957.47   262  19:04      1.65    1.45    1.00
  22                   CONDUIT   1014.84   262  18:53      1.44    1.95    1.00
  23                   CONDUIT   1068.96   262  18:50      1.43    1.54    1.00
  24                   CONDUIT   1392.96   311  23:39      1.77    1.78    1.00
  25                   CONDUIT   1689.83   187  19:17      9.08    1.73    1.00
  26                   CONDUIT    924.35   173  23:40      1.18    0.84    1.00
  27                   CONDUIT   2409.46   254  20:36      3.07    4.76    1.00
  28                   CONDUIT    935.25   254  20:36      1.32    1.01    1.00
  29                   CONDUIT    935.24   254  20:36      1.28    0.95    1.00
  30                   CONDUIT    935.25   254  20:36      3.28    1.05    1.00
  31                   CONDUIT   3086.28   259  03:00      3.93    3.16    1.00
  32                   CONDUIT     41.77   259  01:02      0.05    0.03    1.00
  33                   CONDUIT   1557.27   262  21:19      1.98    1.58    1.00
  34                   CONDUIT   1664.74   262  21:18      2.13    3.01    0.98
  35                   CONDUIT   3267.50   259  03:00      4.19    1.07    0.98
  36                   CONDUIT   1557.27   262  21:19      2.17  275.17    0.86
  37                   CONDUIT   1664.73   262  21:19      2.32   23.89    0.86
  
  
  ***************************
  Flow Classification Summary
  ***************************
  
  -------------------------------------------------------------------------------------
                      Adjusted    ---------- Fraction of Time in Flow Class ---------- 
                       /Actual         Up    Down  Sub   Sup   Up    Down  Norm  Inlet 
  Conduit               Length    Dry  Dry   Dry   Crit  Crit  Crit  Crit  Ltd   Ctrl  
  -------------------------------------------------------------------------------------
  0                       1.00   1.00  0.00  0.00  0.00  0.00  0.00  0.00  0.00  0.00
  1                       1.00   1.00  0.00  0.00  0.00  0.00  0.00  0.00  0.00  0.00
  2                       1.00   0.99  0.01  0.00  0.00  0.00  0.00  0.00  0.00  0.00
  3                       1.00   0.00  0.99  0.00  0.01  0.00  0.00  0.00  0.52  0.00
  4                       1.00   0.00  0.00  0.00  1.00  0.00  0.00  0.00  0.93  0.00
  5                       1.00   0.00  0.00  0.00  0.64  0.36  0.00  0.00  0.99  0.00
  6                       1.00   0.00  0.00  0.00  0.43  0.57  0.00  0.00  0.99  0.00
  7                       1.00   0.00  0.00  0.00  1.00  0.00  0.00  0.00  0.99  0.00
  8                       1.00   0.00  0.00  0.00  0.13  0.87  0.00  0.00  0.10  0.00
  9                       1.00   0.00  0.00  0.00  1.00  0.00  0.00  0.00  0.89  0.00
  10                      1.00   0.00  0.00  0.00  1.00  0.00  0.00  0.00  0.99  0.00
  11                      1.00   0.00  0.00  0.00  1.00  0.00  0.00  0.00  0.98  0.00
  12                      1.00   0.00  0.00  0.00  1.00  0.00  0.00  0.00  0.98  0.00
  13                      1.00   0.00  0.00  0.00  1.00  0.00  0.00  0.00  0.97  0.00
  14                      1.00   0.00  0.00  0.00  1.00  0.00  0.00  0.00  0.95  0.00
  15                      1.00   0.00  0.00  0.00  1.00  0.00  0.00  0.00  0.99  0.00
  16                      1.00   0.00  0.00  0.00  1.00  0.00  0.00  0.00  0.99  0.00
  17                      1.00   0.00  0.00  0.00  0.01  0.99  0.00  0.00  0.00  0.00
  18                      1.00   0.00  0.00  0.00  1.00  0.00  0.00  0.00  0.99  0.00
  19                      1.00   0.00  0.00  0.00  1.00  0.00  0.00  0.00  0.99  0.00
  20                      1.00   0.00  0.85  0.00  0.15  0.00  0.00  0.00  0.51  0.00
  21                      1.00   0.00  0.00  0.00  1.00  0.00  0.00  0.00  0.88  0.00
  22                      1.00   0.00  0.00  0.00  1.00  0.00  0.00  0.00  0.71  0.00
  23                      1.00   0.00  0.00  0.00  1.00  0.00  0.00  0.00  0.86  0.00
  24                      1.00   0.00  0.00  0.00  1.00  0.00  0.00  0.00  0.85  0.00
  25                      1.00   0.00  0.00  0.00  1.00  0.00  0.00  0.00  0.65  0.00
  26                      1.00   0.00  0.00  0.00  1.00  0.00  0.00  0.00  0.68  0.00
  27                      1.00   0.00  0.00  0.00  1.00  0.00  0.00  0.00  0.00  0.00
  28                      1.00   0.00  0.00  0.00  1.00  0.00  0.00  0.00  0.02  0.00
  29                      1.00   0.00  0.00  0.00  1.00  0.00  0.00  0.00  0.88  0.00
  30                      1.00   0.00  0.00  0.00  1.00  0.00  0.00  0.00  0.74  0.00
  31                      1.00   0.00  0.00  0.00  0.99  0.01  0.00  0.00  0.73  0.00
  32                      1.00   0.00  0.00  0.00  1.00  0.00  0.00  0.00  0.11  0.00
  33                      1.00   0.00  0.00  0.00  1.00  0.00  0.00  0.00  0.91  0.00
  34                      1.00   0.00  0.00  0.00  1.00  0.00  0.00  0.00  0.00  0.00
  35                      1.00   0.00  0.00  0.00  0.05  0.95  0.00  0.00  0.00  0.00
  36                      1.00   0.00  0.00  0.00  1.00  0.00  0.00  0.00  0.00  0.00
  37                      1.00   0.00  0.00  0.00  1.00  0.00  0.00  0.00  0.00  0.00
  
  
  *************************
  Conduit Surcharge Summary
  *************************
  
  ----------------------------------------------------------------------------
                                                           Hours        Hours 
                         --------- Hours Full --------   Above Full   Capacity
  Conduit                Both Ends  Upstream  Dnstream   Normal Flow   Limited
  ----------------------------------------------------------------------------
  3                           0.01      0.01   4131.11      0.01         0.01
  4                         450.73    450.73    827.77      0.01         0.01
  8                           0.01      0.01    711.33      0.01         0.01
  9                         480.09    480.09   1143.91      0.01         0.01
  10                          0.01      0.01     14.98      0.01         0.01
  11                         72.30     72.30    111.06      0.01         0.01
  12                        111.06    111.06    151.16      0.01         0.01
  13                        151.16    151.16    268.89      0.01         0.01
  14                        268.89    268.89   3312.72     86.22        89.89
  19                          0.01      0.01   7845.27      0.01         0.01
  20                        395.82    395.82   1290.45      0.01         0.01
  21                        827.77    827.77    934.39      2.73         0.01
  22                        934.39    934.39    991.94      1.11         0.03
  23                        991.94    991.94   1064.18      2.56         3.25
  24                       1064.18   1064.18   1634.30    198.79       200.83
  25                       1634.30   1634.30   2310.85   1044.36      1045.13
  26                       2310.85   2310.85   3312.72      0.01         0.01
  27                        557.20   3312.72    557.20   3015.40       557.20
  28                        557.20    557.20    723.17      3.49        10.52
  29                        723.17    723.17   1619.52      0.01         0.01
  30                       1619.52   1619.52   7845.27     65.11        77.25
  31                         88.17     88.17   2310.85    744.39         0.01
  32                         88.17     88.17   6968.98      0.01         0.01
  33                        557.20    557.20   3390.99    227.70       232.16
  34                          0.01      0.01   7843.32   1841.38         0.01
  35                          0.01     88.17      0.01     28.72         0.01
  36                          0.01   3390.99      0.01   7225.04         0.01
  37                          0.01      0.01      0.01   4569.64         0.01
  

  Analysis begun on:  Wed Apr 15 08:34:29 2020
  Analysis ended on:  Wed Apr 15 09:06:40 2020
  Total elapsed time: 00:32:11