
  EPA STORM WATER MANAGEMENT MODEL - VERSION 5.1 (Build 5.1.013)
  --------------------------------------------------------------

  Template input file for Gottesacker karst system.  
  Based on input files created by Zhao Chen. 
  Modified by Chloe Fandel: 
  
  WARNING 04: minimum elevation drop used for Conduit 36
  WARNING 04: minimum elevation drop used for Conduit 37
  
  *********************************************************
  NOTE: The summary statistics displayed in this report are
  based on results found at every computational time step,  
  not just on results from each reporting time step.
  *********************************************************
  
  ****************
  Analysis Options
  ****************
  Flow Units ............... LPS
  Process Models:
    Rainfall/Runoff ........ YES
    RDII ................... NO
    Snowmelt ............... NO
    Groundwater ............ NO
    Flow Routing ........... YES
    Ponding Allowed ........ NO
    Water Quality .......... NO
  Infiltration Method ...... HORTON
  Flow Routing Method ...... DYNWAVE
  Surcharge Method ......... EXTRAN
  Starting Date ............ 11/14/2013 00:00:00
  Ending Date .............. 10/11/2014 00:00:00
  Antecedent Dry Days ...... 0.0
  Report Time Step ......... 01:00:00
  Wet Time Step ............ 00:30:00
  Dry Time Step ............ 01:00:00
  Routing Time Step ........ 30.00 sec
  Variable Time Step ....... YES
  Maximum Trials ........... 8
  Number of Threads ........ 4
  Head Tolerance ........... 0.001524 m
  
  
  **************************        Volume         Depth
  Runoff Quantity Continuity     hectare-m            mm
  **************************     ---------       -------
  Total Precipitation ......      2501.060       761.068
  Evaporation Loss .........         0.000         0.000
  Infiltration Loss ........         0.000         0.000
  Surface Runoff ...........      2500.232       760.816
  Final Storage ............         1.354         0.412
  Continuity Error (%) .....        -0.021
  
  
  **************************        Volume        Volume
  Flow Routing Continuity        hectare-m      10^6 ltr
  **************************     ---------     ---------
  Dry Weather Inflow .......         0.000         0.000
  Wet Weather Inflow .......      2500.229     25002.547
  Groundwater Inflow .......         0.000         0.000
  RDII Inflow ..............         0.000         0.000
  External Inflow ..........         1.783        17.832
  External Outflow .........      2298.708     22987.317
  Flooding Loss ............       202.802      2028.038
  Evaporation Loss .........         0.000         0.000
  Exfiltration Loss ........         0.000         0.000
  Initial Stored Volume ....         0.000         0.000
  Final Stored Volume ......         0.529         5.290
  Continuity Error (%) .....        -0.001
  
  
  ***************************
  Time-Step Critical Elements
  ***************************
  Link 37 (99.86%)
  
  
  ********************************
  Highest Flow Instability Indexes
  ********************************
  All links are stable.
  
  
  *************************
  Routing Time Step Summary
  *************************
  Minimum Time Step           :     0.50 sec
  Average Time Step           :     0.62 sec
  Maximum Time Step           :    30.00 sec
  Percent in Steady State     :     0.30
  Average Iterations per Step :     2.13
  Percent Not Converging      :     0.81
  
  
  ***************************
  Subcatchment Runoff Summary
  ***************************
  
  ------------------------------------------------------------------------------------------------------------------------------
                            Total      Total      Total      Total     Imperv       Perv      Total       Total     Peak  Runoff
                           Precip      Runon       Evap      Infil     Runoff     Runoff     Runoff      Runoff   Runoff   Coeff
  Subcatchment                 mm         mm         mm         mm         mm         mm         mm    10^6 ltr      LPS
  ------------------------------------------------------------------------------------------------------------------------------
  S1                         0.00       0.00       0.00       0.00       0.00       0.00       0.00        0.00     0.00   0.000
  S2                         0.00       0.00       0.00       0.00       0.00       0.00       0.00        0.00     0.00   0.000
  S3                         0.00       0.00       0.00       0.00       0.00       0.00       0.00        0.00     0.00   0.000
  S4                         0.00       0.00       0.00       0.00       0.00       0.00       0.00        0.00     0.00   0.000
  S5                       502.95       0.00       0.00       0.00     502.68       0.00     502.68      424.77   213.38   0.999
  S6                      1061.54       0.00       0.00       0.00    1061.69       0.00    1061.69      368.94   262.37   1.000
  S7                      1025.22       0.00       0.00       0.00    1025.31       0.00    1025.31      371.68   262.35   1.000
  S8                      1033.18       0.00       0.00       0.00    1033.25       0.00    1033.25      322.89   232.04   1.000
  S9                       995.32       0.00       0.00       0.00     995.37       0.00     995.37      395.66   274.03   1.000
  S10                     1186.51       0.00       0.00       0.00    1186.73       0.00    1186.73      519.20   546.08   1.000
  S11                     1385.10       0.00       0.00       0.00    1385.52       0.00    1385.52      498.79   466.98   1.000
  S12                     1036.22       0.00       0.00       0.00    1036.14       0.00    1036.14      841.87   614.86   1.000
  S13                     1150.07       0.00       0.00       0.00    1149.95       0.00    1149.95     1129.83   806.26   1.000
  S14                      942.82       0.00       0.00       0.00     942.75       0.00     942.75      648.15   455.08   1.000
  S15                     1311.93       0.00       0.00       0.00    1311.77       0.00    1311.77     1613.49  1118.77   1.000
  S16                     1292.86       0.00       0.00       0.00    1293.18       0.00    1293.18      484.95   498.34   1.000
  S17                      770.39       0.00       0.00       0.00     770.36       0.00     770.36      381.33   362.19   1.000
  S18                      109.31       0.00       0.00       0.00     109.10       0.00     109.10       85.64    34.42   0.998
  S19                        0.00       0.00       0.00       0.00       0.00       0.00       0.00        0.00     0.00   0.000
  S20                        0.00       0.00       0.00       0.00       0.00       0.00       0.00        0.00     0.00   0.000
  S21                        0.00       0.00       0.00       0.00       0.00       0.00       0.00        0.00     0.00   0.000
  S22                        0.00       0.00       0.00       0.00       0.00       0.00       0.00        0.00     0.00   0.000
  S23                      746.94       0.00       0.00       0.00     746.24       0.00     746.24     2205.14  1031.99   0.999
  S24                     1070.66       0.00       0.00       0.00    1070.37       0.00    1070.37     1335.30   769.62   1.000
  S25                     1314.94       0.00       0.00       0.00    1314.53       0.00    1314.53     2343.16  1316.65   1.000
  S26                     1334.66       0.00       0.00       0.00    1333.96       0.00    1333.96     4141.96  2106.27   0.999
  S27                     1413.87       0.00       0.00       0.00    1413.56       0.00    1413.56     2540.89  1594.95   1.000
  S28                     1201.81       0.00       0.00       0.00    1201.10       0.00    1201.10     3990.69  2030.49   0.999
  S29                        0.00       0.00       0.00       0.00       0.00       0.00       0.00        0.00     0.00   0.000
  S30                        0.00       0.00       0.00       0.00       0.00       0.00       0.00        0.00     0.00   0.000
  S31                        0.00       0.00       0.00       0.00       0.00       0.00       0.00        0.00     0.00   0.000
  S32                        0.00       0.00       0.00       0.00       0.00       0.00       0.00        0.00     0.00   0.000
  S33                     1362.10       0.00       0.00       0.00    1363.25       0.00    1363.25      132.92   143.90   1.001
  S34                     1356.04       0.00       0.00       0.00    1358.31       0.00    1358.31       30.56    37.33   1.002
  S35                        0.00       0.00       0.00       0.00       0.00       0.00       0.00        0.00     0.00   0.000
  S36                        0.00       0.00       0.00       0.00       0.00       0.00       0.00        0.00     0.00   0.000
  S37                     1365.11       0.00       0.00       0.00    1366.04       0.00    1366.04      194.66   201.10   1.001
  S38                        0.00       0.00       0.00       0.00       0.00       0.00       0.00        0.00     0.00   0.000
  S39                        0.00       0.00       0.00       0.00       0.00       0.00       0.00        0.00     0.00   0.000
  
  
  ******************
  Node Depth Summary
  ******************
  
  ---------------------------------------------------------------------------------
                                 Average  Maximum  Maximum  Time of Max    Reported
                                   Depth    Depth      HGL   Occurrence   Max Depth
  Node                 Type       Meters   Meters   Meters  days hr:min      Meters
  ---------------------------------------------------------------------------------
  0                    JUNCTION     0.00     0.00  1900.00     0  00:00        0.00
  1                    JUNCTION     0.00     0.00  1731.39     0  00:00        0.00
  2                    JUNCTION     0.00     0.00  1624.09     0  00:00        0.00
  3                    JUNCTION     0.00     0.00  1516.79     0  00:00        0.00
  4                    JUNCTION     3.70    97.19  1506.68   239  06:11       73.65
  5                    JUNCTION     0.02     0.13  1900.13   259  03:02        0.13
  6                    JUNCTION     0.04     0.20  1710.87   259  03:05        0.20
  7                    JUNCTION     0.05     0.24  1587.77   259  03:08        0.24
  8                    JUNCTION     0.05     1.09  1465.49   259  04:46        1.08
  9                    JUNCTION     5.58   170.63  1511.89   239  04:35      124.21
  10                   JUNCTION     0.03     0.18  1700.18   262  21:01        0.18
  11                   JUNCTION     0.25   158.45  1710.07   262  21:09      131.49
  12                   JUNCTION     1.80   201.00  1642.63   259  03:53      201.00
  13                   JUNCTION     3.22   201.00  1532.64   227  19:59      201.00
  14                   JUNCTION     4.86   201.00  1422.65   168  21:19      201.00
  15                   JUNCTION     0.03     0.17  1700.17   262  21:00        0.17
  16                   JUNCTION     0.08     0.51  1493.26   262  21:05        0.51
  17                   JUNCTION     0.09     0.52  1360.52   262  21:09        0.52
  18                   JUNCTION     0.10     0.60  1248.99   262  21:13        0.59
  19                   JUNCTION     0.04     0.26  1137.04   262  21:17        0.26
  20                   JUNCTION     1.58   177.88  1623.89   259  01:19       37.13
  21                   JUNCTION    16.99   204.00  1504.00   168  21:52      183.14
  22                   JUNCTION    20.98   201.00  1481.00   163  19:27      201.00
  23                   JUNCTION    21.92   201.00  1471.00   162  19:31      201.00
  24                   JUNCTION    24.82   201.00  1441.00   162  16:20      201.00
  25                   JUNCTION    26.29   201.00  1411.00   158  21:20      201.00
  26                   JUNCTION    13.37   176.42  1303.21   259  03:00      176.42
  27                   JUNCTION    20.74   201.00  1306.00   227  17:56      201.00
  28                   JUNCTION     1.55    50.97  1148.83   262  21:17       50.42
  29                   JUNCTION     2.16    56.67  1131.21   262  21:17       55.67
  30                   JUNCTION     3.93    64.45  1115.65   262  21:17       63.03
  31                   JUNCTION    13.04    68.82  1096.69   262  21:17       66.90
  32                   JUNCTION     0.17     7.46  1149.46   259  03:00        7.46
  33                   JUNCTION    21.36    29.48  1149.48   259  03:00       29.48
  34                   JUNCTION     3.13    23.68  1103.68   262  21:17       23.51
  35                   JUNCTION     0.37     0.97  1035.97   262  21:17        0.96
  36                   OUTFALL      0.12     0.95  1120.95   259  03:00        0.95
  37                   OUTFALL      0.28     0.72  1080.72   262  21:17        0.72
  38                   OUTFALL      0.28     0.74  1035.74   262  21:17        0.74
  
  
  *******************
  Node Inflow Summary
  *******************
  
  -------------------------------------------------------------------------------------------------
                                  Maximum  Maximum                  Lateral       Total        Flow
                                  Lateral    Total  Time of Max      Inflow      Inflow     Balance
                                   Inflow   Inflow   Occurrence      Volume      Volume       Error
  Node                 Type           LPS      LPS  days hr:min    10^6 ltr    10^6 ltr     Percent
  -------------------------------------------------------------------------------------------------
  0                    JUNCTION      0.00     0.00     0  00:00           0           0       0.000 ltr
  1                    JUNCTION      0.00     0.00     0  00:00           0           0       0.000 ltr
  2                    JUNCTION      0.00     0.00     0  00:00           0           0       0.000 ltr
  3                    JUNCTION      0.00     0.00     0  00:00           0           0       0.000 ltr
  4                    JUNCTION    213.87  1230.87   262  19:42         426         555      -0.190
  5                    JUNCTION    263.34   263.34   259  03:00         371         371      -0.004
  6                    JUNCTION    263.33   525.06   259  03:01         374         745      -0.005
  7                    JUNCTION    233.11   754.33   259  03:04         325    1.07e+03      -0.003
  8                    JUNCTION    274.52  1890.08   311  23:58         398    1.47e+03      -0.069
  9                    JUNCTION    546.40  1910.65   311  23:58         520    2.03e+03      -0.015
  10                   JUNCTION    467.05   467.05   262  21:00         499         499      -0.048
  11                   JUNCTION    615.26  1078.87   262  21:00         843    1.34e+03       0.015
  12                   JUNCTION    806.55  1850.51   262  21:09    1.13e+03    2.47e+03       0.001
  13                   JUNCTION    455.56  1914.40   262  21:09         650    3.12e+03      -0.000
  14                   JUNCTION   1118.88  2573.06   262  21:09    1.61e+03    4.73e+03      -0.003
  15                   JUNCTION    498.34   498.34   262  21:00         485         485      -0.012
  16                   JUNCTION    362.19   858.70   262  21:00         381         866       0.004
  17                   JUNCTION     34.42   872.42   262  21:05        85.6         952       0.001
  18                   JUNCTION      0.00   869.84   262  21:09           0         952      -0.000
  19                   JUNCTION      0.00   867.27   262  21:13           0         952       0.002
  20                   JUNCTION      0.00   618.50   259  01:18           0        6.68      -1.532
  21                   JUNCTION      0.00  1353.18   262  19:42           0         866       0.233
  22                   JUNCTION   1032.03  1253.30   262  19:42    2.21e+03    3.04e+03      -0.008
  23                   JUNCTION    769.62  1286.37   259  03:00    1.34e+03    3.95e+03      -0.002
  24                   JUNCTION   1317.07  2006.38   259  03:00    2.34e+03    6.02e+03      -0.001
  25                   JUNCTION   2106.53  3961.10   259  03:00    4.14e+03    1.16e+04       0.000
  26                   JUNCTION   1594.95  3084.76   259  03:00    2.54e+03    1.34e+04      -0.002
  27                   JUNCTION   2030.70  3548.71   259  03:00    3.99e+03    1.54e+04       0.001
  28                   JUNCTION      0.00  2409.12   254  20:37           0     1.5e+04      -0.000
  29                   JUNCTION      0.00   934.34   254  20:37           0    6.99e+03      -0.001
  30                   JUNCTION      0.00   934.34   254  20:37           0    6.99e+03      -0.001
  31                   JUNCTION      0.00  1666.19   262  21:16           0    7.94e+03       0.074
  32                   JUNCTION    143.90  3265.96   259  03:00         133    6.85e+03      -0.002
  33                   JUNCTION     37.33    37.33   259  03:00        30.6        30.6       0.000
  34                   JUNCTION      0.00  1557.99   262  21:17           0    8.01e+03       0.007
  35                   JUNCTION      0.00  1666.19   262  21:17           0    7.94e+03       0.000
  36                   OUTFALL     201.10  3467.05   259  03:00         195    7.04e+03       0.000
  37                   OUTFALL       0.00  1557.99   262  21:17           0    8.01e+03       0.000
  38                   OUTFALL       0.00  1666.18   262  21:17           0    7.94e+03       0.000
  
  
  **********************
  Node Surcharge Summary
  **********************
  
  Surcharging occurs when water rises above the top of the highest conduit.
  ---------------------------------------------------------------------
                                               Max. Height   Min. Depth
                                   Hours       Above Crown    Below Rim
  Node                 Type      Surcharged         Meters       Meters
  ---------------------------------------------------------------------
  4                    JUNCTION      364.38         93.190        0.000
  9                    JUNCTION      524.58        166.630        0.000
  11                   JUNCTION       14.91        154.450        0.000
  12                   JUNCTION      110.54        200.000        0.000
  13                   JUNCTION      150.68        200.000        0.000
  14                   JUNCTION      267.47        200.000        0.000
  20                   JUNCTION      324.23        176.880        0.000
  21                   JUNCTION      846.25        200.000        0.000
  22                   JUNCTION     1234.91        200.000        0.000
  23                   JUNCTION     1279.14        200.000        0.000
  24                   JUNCTION     1354.74        200.000        0.000
  25                   JUNCTION     1431.83        200.000        0.000
  26                   JUNCTION     2305.16        175.422        0.000
  27                   JUNCTION     3311.90        200.000        0.000
  28                   JUNCTION      576.98         49.966        0.000
  29                   JUNCTION      751.76         55.672        0.000
  30                   JUNCTION     1589.22         63.446        0.000
  31                   JUNCTION     7406.48         64.817        0.000
  32                   JUNCTION       87.32          6.463        0.000
  33                   JUNCTION     6965.61         28.477        0.000
  34                   JUNCTION     3390.37         22.684        0.000
  
  
  *********************
  Node Flooding Summary
  *********************
  
  Flooding refers to all water that overflows a node, whether it ponds or not.
  --------------------------------------------------------------------------
                                                             Total   Maximum
                                 Maximum   Time of Max       Flood    Ponded
                        Hours       Rate    Occurrence      Volume     Depth
  Node                 Flooded       LPS   days hr:min    10^6 ltr    Meters
  --------------------------------------------------------------------------
  12                      1.40    381.41    262  21:09       0.864   200.000
  13                      6.14    435.82    262  21:09       4.063   200.000
  14                     75.68   1055.05    262  21:09      91.657   200.000
  21                      0.01    211.39    239  06:11       0.001   200.000
  22                    185.61    723.39    237  07:00     145.714   200.000
  23                    218.60    597.07    259  03:00     167.415   200.000
  24                    329.60   1231.28    259  03:00     539.591   200.000
  25                    327.73   2860.11    259  03:00    1062.096   200.000
  27                     19.32    766.37    259  03:00      16.629   200.000
  
  
  ***********************
  Outfall Loading Summary
  ***********************
  
  -----------------------------------------------------------
                         Flow       Avg       Max       Total
                         Freq      Flow      Flow      Volume
  Outfall Node           Pcnt       LPS       LPS    10^6 ltr
  -----------------------------------------------------------
  36                    97.46    311.62   3467.05    7041.012
  37                    99.98    341.96   1557.99    8008.352
  38                    99.86    339.72   1666.18    7937.848
  -----------------------------------------------------------
  System                99.10    993.30   1666.18   22987.211
  
  
  ********************
  Link Flow Summary
  ********************
  
  -----------------------------------------------------------------------------
                                 Maximum  Time of Max   Maximum    Max/    Max/
                                  |Flow|   Occurrence   |Veloc|    Full    Full
  Link                 Type          LPS  days hr:min     m/sec    Flow   Depth
  -----------------------------------------------------------------------------
  0                    CONDUIT      0.00     0  00:00      0.00    0.00    0.00
  1                    CONDUIT      0.00     0  00:00      0.00    0.00    0.00
  2                    CONDUIT      0.00     0  00:00      0.00    0.00    0.00
  3                    CONDUIT      0.00     0  00:00      0.00    0.00    0.50
  4                    CONDUIT   1129.21   262  19:42      0.56    0.01    1.00
  5                    CONDUIT    262.38   259  03:02      1.48    0.00    0.04
  6                    CONDUIT    522.89   259  03:05      1.94    0.01    0.05
  7                    CONDUIT    752.41   259  03:08      2.10    0.01    0.16
  8                    CONDUIT   1185.47   311  23:58      1.05    0.01    0.64
  9                    CONDUIT   1084.59   259  04:46      1.38    0.63    1.00
  10                   CONDUIT    464.30   262  21:01      0.76    0.00    0.52
  11                   CONDUIT   1061.98   262  21:09      1.42    0.70    1.00
  12                   CONDUIT   1469.38   259  03:53      1.87    0.99    1.00
  13                   CONDUIT   1478.58   227  20:00      1.88    0.99    1.00
  14                   CONDUIT   1784.92   262  18:58      2.27    1.16    1.00
  15                   CONDUIT    496.84   262  21:00      0.98    0.00    0.09
  16                   CONDUIT    848.88   262  21:05      2.08    0.51    0.52
  17                   CONDUIT    869.84   262  21:09      1.92    0.53    0.56
  18                   CONDUIT    867.27   262  21:13      2.68    0.54    0.43
  19                   CONDUIT    866.24   262  21:17      0.38    0.01    0.53
  20                   CONDUIT    618.50   259  01:18      1.14    0.36    1.00
  21                   CONDUIT   1253.28   262  19:42      1.60    1.90    1.00
  22                   CONDUIT    882.80   262  19:41      1.12    1.70    1.00
  23                   CONDUIT    769.18   188  07:20      0.98    1.11    1.00
  24                   CONDUIT   1020.57   258  23:50      1.30    1.31    1.00
  25                   CONDUIT   1681.25   187  19:46      2.14    1.72    1.00
  26                   CONDUIT    916.28   173  22:19      1.17    0.84    1.00
  27                   CONDUIT   2409.12   254  20:37      3.07    4.76    1.00
  28                   CONDUIT    934.34   254  20:37      1.33    1.01    1.00
  29                   CONDUIT    934.34   254  20:37      1.28    0.95    1.00
  30                   CONDUIT    934.34   254  20:37      3.28    1.05    1.00
  31                   CONDUIT   3084.74   259  03:00      3.93    3.15    1.00
  32                   CONDUIT     41.71   259  01:05      0.05    0.03    1.00
  33                   CONDUIT   1557.99   262  21:17      1.98    1.58    1.00
  34                   CONDUIT   1666.19   262  21:17      2.13    3.02    0.99
  35                   CONDUIT   3265.95   259  03:00      4.19    1.07    0.98
  36                   CONDUIT   1557.99   262  21:17      2.17  275.30    0.86
  37                   CONDUIT   1666.18   262  21:17      2.32   23.91    0.86
  
  
  ***************************
  Flow Classification Summary
  ***************************
  
  -------------------------------------------------------------------------------------
                      Adjusted    ---------- Fraction of Time in Flow Class ---------- 
                       /Actual         Up    Down  Sub   Sup   Up    Down  Norm  Inlet 
  Conduit               Length    Dry  Dry   Dry   Crit  Crit  Crit  Crit  Ltd   Ctrl  
  -------------------------------------------------------------------------------------
  0                       1.00   1.00  0.00  0.00  0.00  0.00  0.00  0.00  0.00  0.00
  1                       1.00   1.00  0.00  0.00  0.00  0.00  0.00  0.00  0.00  0.00
  2                       1.00   1.00  0.00  0.00  0.00  0.00  0.00  0.00  0.00  0.00
  3                       1.00   0.00  1.00  0.00  0.00  0.00  0.00  0.00  0.00  0.00
  4                       1.00   0.00  0.00  0.00  1.00  0.00  0.00  0.00  0.91  0.00
  5                       1.00   0.00  0.00  0.00  0.63  0.37  0.00  0.00  0.98  0.00
  6                       1.00   0.00  0.00  0.00  0.41  0.59  0.00  0.00  0.98  0.00
  7                       1.00   0.00  0.00  0.00  0.34  0.66  0.00  0.00  0.98  0.00
  8                       1.00   0.00  0.00  0.00  1.00  0.00  0.00  0.00  0.99  0.00
  9                       1.00   0.00  0.00  0.00  1.00  0.00  0.00  0.00  0.89  0.00
  10                      1.00   0.00  0.00  0.00  1.00  0.00  0.00  0.00  0.99  0.00
  11                      1.00   0.00  0.00  0.00  1.00  0.00  0.00  0.00  0.98  0.00
  12                      1.00   0.00  0.00  0.00  1.00  0.00  0.00  0.00  0.98  0.00
  13                      1.00   0.00  0.00  0.00  1.00  0.00  0.00  0.00  0.97  0.00
  14                      1.00   0.00  0.00  0.00  1.00  0.00  0.00  0.00  0.95  0.00
  15                      1.00   0.00  0.00  0.00  1.00  0.00  0.00  0.00  0.99  0.00
  16                      1.00   0.00  0.00  0.00  0.81  0.19  0.00  0.00  0.96  0.00
  17                      1.00   0.00  0.00  0.00  1.00  0.00  0.00  0.00  0.99  0.00
  18                      1.00   0.00  0.00  0.00  0.00  1.00  0.00  0.00  0.00  0.00
  19                      1.00   0.00  0.00  0.00  1.00  0.00  0.00  0.00  0.99  0.00
  20                      1.00   0.00  0.88  0.00  0.12  0.00  0.00  0.00  0.46  0.00
  21                      1.00   0.00  0.00  0.00  1.00  0.00  0.00  0.00  0.84  0.00
  22                      1.00   0.00  0.00  0.00  1.00  0.00  0.00  0.00  0.68  0.00
  23                      1.00   0.00  0.00  0.00  1.00  0.00  0.00  0.00  0.82  0.00
  24                      1.00   0.00  0.00  0.00  1.00  0.00  0.00  0.00  0.82  0.00
  25                      1.00   0.00  0.00  0.00  1.00  0.00  0.00  0.00  0.68  0.00
  26                      1.00   0.00  0.00  0.00  1.00  0.00  0.00  0.00  0.68  0.00
  27                      1.00   0.00  0.00  0.00  1.00  0.00  0.00  0.00  0.00  0.00
  28                      1.00   0.00  0.00  0.00  1.00  0.00  0.00  0.00  0.02  0.00
  29                      1.00   0.00  0.00  0.00  1.00  0.00  0.00  0.00  0.88  0.00
  30                      1.00   0.00  0.00  0.00  1.00  0.00  0.00  0.00  0.75  0.00
  31                      1.00   0.00  0.00  0.00  0.99  0.01  0.00  0.00  0.74  0.00
  32                      1.00   0.00  0.00  0.00  1.00  0.00  0.00  0.00  0.11  0.00
  33                      1.00   0.00  0.00  0.00  1.00  0.00  0.00  0.00  0.91  0.00
  34                      1.00   0.00  0.00  0.00  1.00  0.00  0.00  0.00  0.00  0.00
  35                      1.00   0.00  0.00  0.00  0.03  0.97  0.00  0.00  0.00  0.00
  36                      1.00   0.00  0.00  0.00  1.00  0.00  0.00  0.00  0.00  0.00
  37                      1.00   0.00  0.00  0.00  1.00  0.00  0.00  0.00  0.00  0.00
  
  
  *************************
  Conduit Surcharge Summary
  *************************
  
  ----------------------------------------------------------------------------
                                                           Hours        Hours 
                         --------- Hours Full --------   Above Full   Capacity
  Conduit                Both Ends  Upstream  Dnstream   Normal Flow   Limited
  ----------------------------------------------------------------------------
  4                         364.38    364.38    846.24      0.01         0.01
  8                           0.01      0.01    524.58      0.01         0.01
  9                         772.79    772.79   1431.83      0.01         0.01
  10                          0.01      0.01     14.91      0.01         0.01
  11                         72.22     72.22    110.53      0.01         0.01
  12                        110.53    110.53    150.68      0.01         0.01
  13                        150.68    150.68    267.46      0.01         0.01
  14                        267.46    267.46   3311.88     86.78        91.03
  19                          0.01      0.01   7406.48      0.01         0.01
  20                        324.23    324.23    942.89      0.01         0.01
  21                       1139.41   1139.41   1234.91     35.07         0.01
  22                       1234.91   1234.91   1279.14     87.53        94.39
  23                       1279.14   1279.14   1354.74      0.15         0.17
  24                       1354.74   1354.74   1431.83    307.09       323.10
  25                       1431.83   1431.83   2305.16   1328.10      1332.74
  26                       2305.16   2305.16   3311.88      0.01         0.01
  27                        576.98   3311.88    576.98   3014.58       576.98
  28                        576.98    576.98    751.75      3.26         9.14
  29                        751.75    751.75   1589.21      0.01         0.01
  30                       1589.21   1589.21   7818.74     63.62        75.89
  31                         87.32     87.32   2305.16    770.12         0.01
  32                         87.32     87.32   6965.61      0.01         0.01
  33                        576.98    576.98   3390.35    226.71       232.16
  34                          0.01      0.01   7396.08   1807.68         0.01
  35                          0.01     87.32      0.01     27.88         0.01
  36                          0.01   3390.35      0.01   7224.94         0.01
  37                          0.01      0.01      0.01   4569.21         0.01
  

  Analysis begun on:  Wed Apr 15 06:57:23 2020
  Analysis ended on:  Wed Apr 15 07:29:09 2020
  Total elapsed time: 00:31:46