
  EPA STORM WATER MANAGEMENT MODEL - VERSION 5.1 (Build 5.1.013)
  --------------------------------------------------------------

  Template input file for Gottesacker karst system.  
  Based on input files created by Zhao Chen. 
  Modified by Chloe Fandel: 
  
  WARNING 04: minimum elevation drop used for Conduit 36
  WARNING 04: minimum elevation drop used for Conduit 37
  
  *********************************************************
  NOTE: The summary statistics displayed in this report are
  based on results found at every computational time step,  
  not just on results from each reporting time step.
  *********************************************************
  
  ****************
  Analysis Options
  ****************
  Flow Units ............... LPS
  Process Models:
    Rainfall/Runoff ........ YES
    RDII ................... NO
    Snowmelt ............... NO
    Groundwater ............ NO
    Flow Routing ........... YES
    Ponding Allowed ........ NO
    Water Quality .......... NO
  Infiltration Method ...... HORTON
  Flow Routing Method ...... DYNWAVE
  Surcharge Method ......... EXTRAN
  Starting Date ............ 11/14/2013 00:00:00
  Ending Date .............. 10/11/2014 00:00:00
  Antecedent Dry Days ...... 0.0
  Report Time Step ......... 01:00:00
  Wet Time Step ............ 00:30:00
  Dry Time Step ............ 01:00:00
  Routing Time Step ........ 30.00 sec
  Variable Time Step ....... YES
  Maximum Trials ........... 8
  Number of Threads ........ 4
  Head Tolerance ........... 0.001524 m
  
  
  **************************        Volume         Depth
  Runoff Quantity Continuity     hectare-m            mm
  **************************     ---------       -------
  Total Precipitation ......      2501.060       761.068
  Evaporation Loss .........         0.000         0.000
  Infiltration Loss ........         0.000         0.000
  Surface Runoff ...........      2500.232       760.816
  Final Storage ............         1.354         0.412
  Continuity Error (%) .....        -0.021
  
  
  **************************        Volume        Volume
  Flow Routing Continuity        hectare-m      10^6 ltr
  **************************     ---------     ---------
  Dry Weather Inflow .......         0.000         0.000
  Wet Weather Inflow .......      2500.229     25002.547
  Groundwater Inflow .......         0.000         0.000
  RDII Inflow ..............         0.000         0.000
  External Inflow ..........         1.783        17.832
  External Outflow .........      2268.087     22681.102
  Flooding Loss ............       233.921      2339.238
  Evaporation Loss .........         0.000         0.000
  Exfiltration Loss ........         0.000         0.000
  Initial Stored Volume ....         0.000         0.000
  Final Stored Volume ......         0.114         1.138
  Continuity Error (%) .....        -0.004
  
  
  *************************
  Highest Continuity Errors
  *************************
  Node 3 (11.47%)
  
  
  ***************************
  Time-Step Critical Elements
  ***************************
  Link 37 (99.97%)
  
  
  ********************************
  Highest Flow Instability Indexes
  ********************************
  All links are stable.
  
  
  *************************
  Routing Time Step Summary
  *************************
  Minimum Time Step           :     0.37 sec
  Average Time Step           :     0.60 sec
  Maximum Time Step           :    30.00 sec
  Percent in Steady State     :     0.30
  Average Iterations per Step :     2.16
  Percent Not Converging      :     1.09
  
  
  ***************************
  Subcatchment Runoff Summary
  ***************************
  
  ------------------------------------------------------------------------------------------------------------------------------
                            Total      Total      Total      Total     Imperv       Perv      Total       Total     Peak  Runoff
                           Precip      Runon       Evap      Infil     Runoff     Runoff     Runoff      Runoff   Runoff   Coeff
  Subcatchment                 mm         mm         mm         mm         mm         mm         mm    10^6 ltr      LPS
  ------------------------------------------------------------------------------------------------------------------------------
  S1                         0.00       0.00       0.00       0.00       0.00       0.00       0.00        0.00     0.00   0.000
  S2                         0.00       0.00       0.00       0.00       0.00       0.00       0.00        0.00     0.00   0.000
  S3                         0.00       0.00       0.00       0.00       0.00       0.00       0.00        0.00     0.00   0.000
  S4                         0.00       0.00       0.00       0.00       0.00       0.00       0.00        0.00     0.00   0.000
  S5                       502.95       0.00       0.00       0.00     502.68       0.00     502.68      424.77   213.38   0.999
  S6                      1061.54       0.00       0.00       0.00    1061.69       0.00    1061.69      368.94   262.37   1.000
  S7                      1025.22       0.00       0.00       0.00    1025.31       0.00    1025.31      371.68   262.35   1.000
  S8                      1033.18       0.00       0.00       0.00    1033.25       0.00    1033.25      322.89   232.04   1.000
  S9                       995.32       0.00       0.00       0.00     995.37       0.00     995.37      395.66   274.03   1.000
  S10                     1186.51       0.00       0.00       0.00    1186.73       0.00    1186.73      519.20   546.08   1.000
  S11                     1385.10       0.00       0.00       0.00    1385.52       0.00    1385.52      498.79   466.98   1.000
  S12                     1036.22       0.00       0.00       0.00    1036.14       0.00    1036.14      841.87   614.86   1.000
  S13                     1150.07       0.00       0.00       0.00    1149.95       0.00    1149.95     1129.83   806.26   1.000
  S14                      942.82       0.00       0.00       0.00     942.75       0.00     942.75      648.15   455.08   1.000
  S15                     1311.93       0.00       0.00       0.00    1311.77       0.00    1311.77     1613.49  1118.77   1.000
  S16                     1292.86       0.00       0.00       0.00    1293.18       0.00    1293.18      484.95   498.34   1.000
  S17                      770.39       0.00       0.00       0.00     770.36       0.00     770.36      381.33   362.19   1.000
  S18                      109.31       0.00       0.00       0.00     109.10       0.00     109.10       85.64    34.42   0.998
  S19                        0.00       0.00       0.00       0.00       0.00       0.00       0.00        0.00     0.00   0.000
  S20                        0.00       0.00       0.00       0.00       0.00       0.00       0.00        0.00     0.00   0.000
  S21                        0.00       0.00       0.00       0.00       0.00       0.00       0.00        0.00     0.00   0.000
  S22                        0.00       0.00       0.00       0.00       0.00       0.00       0.00        0.00     0.00   0.000
  S23                      746.94       0.00       0.00       0.00     746.24       0.00     746.24     2205.14  1031.99   0.999
  S24                     1070.66       0.00       0.00       0.00    1070.37       0.00    1070.37     1335.30   769.62   1.000
  S25                     1314.94       0.00       0.00       0.00    1314.53       0.00    1314.53     2343.16  1316.65   1.000
  S26                     1334.66       0.00       0.00       0.00    1333.96       0.00    1333.96     4141.96  2106.27   0.999
  S27                     1413.87       0.00       0.00       0.00    1413.56       0.00    1413.56     2540.89  1594.95   1.000
  S28                     1201.81       0.00       0.00       0.00    1201.10       0.00    1201.10     3990.69  2030.49   0.999
  S29                        0.00       0.00       0.00       0.00       0.00       0.00       0.00        0.00     0.00   0.000
  S30                        0.00       0.00       0.00       0.00       0.00       0.00       0.00        0.00     0.00   0.000
  S31                        0.00       0.00       0.00       0.00       0.00       0.00       0.00        0.00     0.00   0.000
  S32                        0.00       0.00       0.00       0.00       0.00       0.00       0.00        0.00     0.00   0.000
  S33                     1362.10       0.00       0.00       0.00    1363.25       0.00    1363.25      132.92   143.90   1.001
  S34                     1356.04       0.00       0.00       0.00    1358.31       0.00    1358.31       30.56    37.33   1.002
  S35                        0.00       0.00       0.00       0.00       0.00       0.00       0.00        0.00     0.00   0.000
  S36                        0.00       0.00       0.00       0.00       0.00       0.00       0.00        0.00     0.00   0.000
  S37                     1365.11       0.00       0.00       0.00    1366.04       0.00    1366.04      194.66   201.10   1.001
  S38                        0.00       0.00       0.00       0.00       0.00       0.00       0.00        0.00     0.00   0.000
  S39                        0.00       0.00       0.00       0.00       0.00       0.00       0.00        0.00     0.00   0.000
  
  
  ******************
  Node Depth Summary
  ******************
  
  ---------------------------------------------------------------------------------
                                 Average  Maximum  Maximum  Time of Max    Reported
                                   Depth    Depth      HGL   Occurrence   Max Depth
  Node                 Type       Meters   Meters   Meters  days hr:min      Meters
  ---------------------------------------------------------------------------------
  0                    JUNCTION     0.00     0.00  1900.00     0  00:00        0.00
  1                    JUNCTION     0.00     0.00  1731.39     0  00:00        0.00
  2                    JUNCTION     0.00     0.00  1624.09     0  00:00        0.00
  3                    JUNCTION     0.00     0.00  1516.79   242  22:58        0.00
  4                    JUNCTION     5.13   147.72  1557.21   242  22:58       75.08
  5                    JUNCTION     0.02     0.13  1900.13   259  03:02        0.13
  6                    JUNCTION     0.07     0.39  1711.06   259  03:10        0.38
  7                    JUNCTION     0.09     0.47  1588.01   259  03:12        0.47
  8                    JUNCTION     0.21    98.58  1562.98   254  20:52       80.11
  9                    JUNCTION     6.90   201.00  1542.26   221  18:13      157.01
  10                   JUNCTION     0.06     0.82  1700.82   262  21:22        0.66
  11                   JUNCTION     0.55   166.14  1717.76   262  19:09      141.46
  12                   JUNCTION     1.72   201.00  1642.63   254  20:44      201.00
  13                   JUNCTION     2.92   201.00  1532.64   227  14:08      201.00
  14                   JUNCTION     4.57   201.00  1422.65   168  21:17      201.00
  15                   JUNCTION     0.03     0.17  1700.17   262  21:00        0.17
  16                   JUNCTION     0.08     0.51  1493.26   262  21:05        0.51
  17                   JUNCTION     0.08     0.53  1360.53   262  21:08        0.52
  18                   JUNCTION     0.08     0.53  1248.92   262  21:12        0.52
  19                   JUNCTION     0.09     0.53  1137.31   262  21:17        0.52
  20                   JUNCTION     2.07   113.62  1559.62   262  19:07       37.14
  21                   JUNCTION    16.85   201.00  1501.00   174  11:46      183.13
  22                   JUNCTION    19.86   201.00  1481.00   158  19:34      201.00
  23                   JUNCTION    20.64   201.00  1471.00   161  15:44      201.00
  24                   JUNCTION    22.93   201.00  1441.00   140  15:25      201.00
  25                   JUNCTION    24.25   201.00  1411.00   139  16:50      201.00
  26                   JUNCTION    12.86   176.42  1303.21   259  03:00      176.42
  27                   JUNCTION    20.14   201.00  1306.00   227  17:56      201.00
  28                   JUNCTION     1.54    50.99  1148.86   262  21:17       50.42
  29                   JUNCTION     2.14    56.71  1131.25   262  21:17       55.66
  30                   JUNCTION     3.75    64.50  1115.70   262  21:17       63.02
  31                   JUNCTION    12.87    68.89  1096.76   262  21:17       66.90
  32                   JUNCTION     0.16     7.46  1149.46   259  03:00        7.46
  33                   JUNCTION    20.91    29.48  1149.48   259  02:59       29.48
  34                   JUNCTION     3.05    23.69  1103.69   262  21:17       23.51
  35                   JUNCTION     0.37     0.97  1035.97   262  21:17        0.96
  36                   OUTFALL      0.11     0.95  1120.95   259  03:00        0.95
  37                   OUTFALL      0.28     0.72  1080.72   262  21:17        0.72
  38                   OUTFALL      0.28     0.74  1035.74   262  21:17        0.74
  
  
  *******************
  Node Inflow Summary
  *******************
  
  -------------------------------------------------------------------------------------------------
                                  Maximum  Maximum                  Lateral       Total        Flow
                                  Lateral    Total  Time of Max      Inflow      Inflow     Balance
                                   Inflow   Inflow   Occurrence      Volume      Volume       Error
  Node                 Type           LPS      LPS  days hr:min    10^6 ltr    10^6 ltr     Percent
  -------------------------------------------------------------------------------------------------
  0                    JUNCTION      0.00     0.00     0  00:00           0           0       0.000 ltr
  1                    JUNCTION      0.00     0.00     0  00:00           0           0       0.000 ltr
  2                    JUNCTION      0.00     0.00     0  00:00           0           0       0.000 ltr
  3                    JUNCTION      0.00   129.53   242  22:58           0    0.000573      12.954
  4                    JUNCTION    213.87   640.15   262  18:49         426         437      -0.036
  5                    JUNCTION    263.34   263.34   259  03:00         371         371      -0.007
  6                    JUNCTION    263.33   524.86   259  03:01         374         745       0.003
  7                    JUNCTION    233.11   749.59   259  03:07         325    1.07e+03       0.000
  8                    JUNCTION    274.52  1015.84   259  03:09         398    1.47e+03      -0.005
  9                    JUNCTION    546.40  1376.33   259  03:05         520    1.99e+03       0.009
  10                   JUNCTION    467.05   467.05   262  21:00         499         499      -0.008
  11                   JUNCTION    615.26  1009.83   262  21:08         843    1.34e+03       0.002
  12                   JUNCTION    806.55  1814.84   262  21:00    1.13e+03    2.47e+03      -0.001
  13                   JUNCTION    455.56  1924.94   262  21:00         650    3.12e+03      -0.002
  14                   JUNCTION   1118.88  2597.46   262  21:00    1.61e+03    4.72e+03      -0.003
  15                   JUNCTION    498.34   498.34   262  21:00         485         485      -0.012
  16                   JUNCTION    362.19   858.69   262  21:00         381         866       0.004
  17                   JUNCTION     34.42   872.41   262  21:05        85.6         952       0.001
  18                   JUNCTION      0.00   870.33   262  21:09           0         952      -0.001
  19                   JUNCTION      0.00   868.88   262  21:13           0         952       0.003
  20                   JUNCTION      0.00   347.15   239  03:27           0          13      -0.604
  21                   JUNCTION      0.00   870.60   262  18:37           0         501      -0.045
  22                   JUNCTION   1032.03  1240.14   237  07:00    2.21e+03    2.69e+03      -0.007
  23                   JUNCTION    769.62  1286.37   259  03:00    1.34e+03    3.83e+03      -0.003
  24                   JUNCTION   1317.07  2006.38   259  03:00    2.34e+03    5.96e+03      -0.002
  25                   JUNCTION   2106.53  4255.04   259  03:02    4.14e+03    1.14e+04      -0.000
  26                   JUNCTION   1594.95  3084.74   259  03:00    2.54e+03    1.31e+04      -0.002
  27                   JUNCTION   2030.70  3548.71   259  03:00    3.99e+03    1.53e+04       0.001
  28                   JUNCTION      0.00  2409.13   254  20:37           0    1.49e+04       0.000
  29                   JUNCTION      0.00   934.38   254  20:37           0    6.95e+03      -0.001
  30                   JUNCTION      0.00   934.37   254  20:37           0    6.95e+03      -0.001
  31                   JUNCTION      0.00  1666.67   262  21:17           0     7.9e+03       0.008
  32                   JUNCTION    143.90  3265.98   259  03:00         133    6.62e+03      -0.001
  33                   JUNCTION     37.33    37.33   259  03:00        30.6        30.6       0.000
  34                   JUNCTION      0.00  1558.23   262  21:17           0    7.98e+03       0.007
  35                   JUNCTION      0.00  1666.67   262  21:17           0     7.9e+03       0.000
  36                   OUTFALL     201.10  3467.08   259  03:00         195     6.8e+03       0.000
  37                   OUTFALL       0.00  1558.23   262  21:17           0    7.98e+03       0.000
  38                   OUTFALL       0.00  1666.65   262  21:17           0     7.9e+03       0.000
  
  
  **********************
  Node Surcharge Summary
  **********************
  
  Surcharging occurs when water rises above the top of the highest conduit.
  ---------------------------------------------------------------------
                                               Max. Height   Min. Depth
                                   Hours       Above Crown    Below Rim
  Node                 Type      Surcharged         Meters       Meters
  ---------------------------------------------------------------------
  4                    JUNCTION      545.86        146.725        0.000
  8                    JUNCTION       32.11         97.582        0.000
  9                    JUNCTION      622.14        200.000        0.000
  11                   JUNCTION       48.07        165.145        0.000
  12                   JUNCTION       95.35        200.000        0.000
  13                   JUNCTION      144.16        200.000        0.000
  14                   JUNCTION      280.45        200.000        0.000
  20                   JUNCTION      470.07        112.616        0.000
  21                   JUNCTION      798.03        200.000        0.000
  22                   JUNCTION      975.91        200.000        0.000
  23                   JUNCTION     1051.87        200.000        0.000
  24                   JUNCTION     1162.58        200.000        0.000
  25                   JUNCTION     1272.58        200.000        0.000
  26                   JUNCTION     2304.06        175.425        0.000
  27                   JUNCTION     3311.84        200.000        0.000
  28                   JUNCTION      589.56         49.986        0.000
  29                   JUNCTION      723.31         55.710        0.000
  30                   JUNCTION     1519.66         63.499        0.000
  31                   JUNCTION     7845.16         67.889        0.000
  32                   JUNCTION       81.38          6.464        0.000
  33                   JUNCTION     6968.98         28.483        0.000
  34                   JUNCTION     3390.31         22.691        0.000
  
  
  *********************
  Node Flooding Summary
  *********************
  
  Flooding refers to all water that overflows a node, whether it ponds or not.
  --------------------------------------------------------------------------
                                                             Total   Maximum
                                 Maximum   Time of Max       Flood    Ponded
                        Hours       Rate    Occurrence      Volume     Depth
  Node                 Flooded       LPS   days hr:min    10^6 ltr    Meters
  --------------------------------------------------------------------------
  9                       0.01    869.06    262  18:40       0.001   200.000
  12                      4.44    345.45    262  21:00       2.551   200.000
  13                     20.08    446.35    262  21:00      13.728   200.000
  14                     69.47   1079.44    262  21:00     110.129   200.000
  21                      0.01    309.30    239  03:10       0.003   200.000
  22                    209.25    723.39    237  07:00     155.430   200.000
  23                    264.52    597.07    259  03:00     196.319   200.000
  24                    450.20   1231.28    259  03:00     666.395   200.000
  25                    439.59   3153.76    259  03:01    1178.041   200.000
  27                     19.32    766.41    259  03:00      16.630   200.000
  
  
  ***********************
  Outfall Loading Summary
  ***********************
  
  -----------------------------------------------------------
                         Flow       Avg       Max       Total
                         Freq      Flow      Flow      Volume
  Outfall Node           Pcnt       LPS       LPS    10^6 ltr
  -----------------------------------------------------------
  36                    95.99    299.00   3467.08    6803.755
  37                    99.98    333.16   1558.23    7975.915
  38                    99.97    330.20   1666.65    7901.328
  -----------------------------------------------------------
  System                98.65    962.36   1666.65   22680.998
  
  
  ********************
  Link Flow Summary
  ********************
  
  -----------------------------------------------------------------------------
                                 Maximum  Time of Max   Maximum    Max/    Max/
                                  |Flow|   Occurrence   |Veloc|    Full    Full
  Link                 Type          LPS  days hr:min     m/sec    Flow   Depth
  -----------------------------------------------------------------------------
  0                    CONDUIT      0.00     0  00:00      0.00    0.00    0.00
  1                    CONDUIT      0.00     0  00:00      0.00    0.00    0.00
  2                    CONDUIT      0.00     0  00:00      0.00    0.00    0.00
  3                    CONDUIT    129.53   242  22:58      0.33    0.07    0.50
  4                    CONDUIT    561.85   262  18:49      0.94    0.29    1.00
  5                    CONDUIT    262.27   259  03:02      0.77    0.00    0.06
  6                    CONDUIT    519.50   259  03:10      1.61    0.31    0.43
  7                    CONDUIT    748.14   259  03:12      1.63    0.45    0.74
  8                    CONDUIT   1015.85   259  03:09      1.53    0.61    1.00
  9                    CONDUIT   1376.33   259  03:05      1.75    0.81    1.00
  10                   CONDUIT    440.33   262  21:50      1.20    0.25    0.91
  11                   CONDUIT   1009.82   262  21:08      1.45    0.67    1.00
  12                   CONDUIT   1469.38   262  19:31      1.87    0.99    1.00
  13                   CONDUIT   1478.58   227  17:40      1.88    0.99    1.00
  14                   CONDUIT   1777.95   168  21:25      2.26    1.16    1.00
  15                   CONDUIT    496.84   262  21:00      0.99    0.00    0.09
  16                   CONDUIT    848.87   262  21:05      2.08    0.51    0.52
  17                   CONDUIT    870.33   262  21:09      2.08    0.54    0.53
  18                   CONDUIT    868.88   262  21:13      2.06    0.54    0.53
  19                   CONDUIT    867.11   262  21:17      1.34    0.55    0.77
  20                   CONDUIT    347.15   239  03:27      0.78    0.20    1.00
  21                   CONDUIT    810.60   262  18:37      1.29    1.23    1.00
  22                   CONDUIT    594.25   221  17:54      0.79    1.14    1.00
  23                   CONDUIT    689.30   163  18:25      0.89    0.99    1.00
  24                   CONDUIT    997.38   173  18:42      1.27    1.28    1.00
  25                   CONDUIT   1681.29   187  19:47      2.14    1.72    1.00
  26                   CONDUIT    946.57   173  16:19      1.21    0.86    1.00
  27                   CONDUIT   2409.13   254  20:37      3.07    4.76    1.00
  28                   CONDUIT    934.38   254  20:37      1.33    1.01    1.00
  29                   CONDUIT    934.37   254  20:37      1.28    0.95    1.00
  30                   CONDUIT    934.37   254  20:37      3.28    1.05    1.00
  31                   CONDUIT   3084.74   259  03:00      3.93    3.15    1.00
  32                   CONDUIT     41.72   259  01:05      0.05    0.03    1.00
  33                   CONDUIT   1558.23   262  21:17      1.98    1.58    1.00
  34                   CONDUIT   1666.67   262  21:17      2.13    3.02    0.99
  35                   CONDUIT   3265.97   259  03:00      4.19    1.07    0.98
  36                   CONDUIT   1558.23   262  21:17      2.17  275.34    0.86
  37                   CONDUIT   1666.65   262  21:17      2.32   23.92    0.86
  
  
  ***************************
  Flow Classification Summary
  ***************************
  
  -------------------------------------------------------------------------------------
                      Adjusted    ---------- Fraction of Time in Flow Class ---------- 
                       /Actual         Up    Down  Sub   Sup   Up    Down  Norm  Inlet 
  Conduit               Length    Dry  Dry   Dry   Crit  Crit  Crit  Crit  Ltd   Ctrl  
  -------------------------------------------------------------------------------------
  0                       1.00   1.00  0.00  0.00  0.00  0.00  0.00  0.00  0.00  0.00
  1                       1.00   1.00  0.00  0.00  0.00  0.00  0.00  0.00  0.00  0.00
  2                       1.00   0.99  0.01  0.00  0.00  0.00  0.00  0.00  0.00  0.00
  3                       1.00   0.00  0.99  0.00  0.01  0.00  0.00  0.00  0.49  0.00
  4                       1.00   0.00  0.00  0.00  1.00  0.00  0.00  0.00  0.91  0.00
  5                       1.00   0.00  0.00  0.00  1.00  0.00  0.00  0.00  0.99  0.00
  6                       1.00   0.00  0.00  0.00  1.00  0.00  0.00  0.00  0.99  0.00
  7                       1.00   0.00  0.00  0.00  0.99  0.01  0.00  0.00  0.99  0.00
  8                       1.00   0.00  0.00  0.00  0.98  0.02  0.00  0.00  0.98  0.00
  9                       1.00   0.00  0.00  0.00  1.00  0.00  0.00  0.00  0.90  0.00
  10                      1.00   0.00  0.00  0.00  1.00  0.00  0.00  0.00  0.99  0.00
  11                      1.00   0.00  0.00  0.00  1.00  0.00  0.00  0.00  0.98  0.00
  12                      1.00   0.00  0.00  0.00  1.00  0.00  0.00  0.00  0.98  0.00
  13                      1.00   0.00  0.00  0.00  1.00  0.00  0.00  0.00  0.97  0.00
  14                      1.00   0.00  0.00  0.00  1.00  0.00  0.00  0.00  0.95  0.00
  15                      1.00   0.00  0.00  0.00  1.00  0.00  0.00  0.00  0.99  0.00
  16                      1.00   0.00  0.00  0.00  0.82  0.18  0.00  0.00  0.97  0.00
  17                      1.00   0.00  0.00  0.00  0.69  0.31  0.00  0.00  0.01  0.00
  18                      1.00   0.00  0.00  0.00  0.74  0.26  0.00  0.00  0.74  0.00
  19                      1.00   0.00  0.00  0.00  1.00  0.00  0.00  0.00  0.99  0.00
  20                      1.00   0.00  0.82  0.00  0.18  0.00  0.00  0.00  0.51  0.00
  21                      1.00   0.00  0.00  0.00  1.00  0.00  0.00  0.00  0.87  0.00
  22                      1.00   0.00  0.00  0.00  1.00  0.00  0.00  0.00  0.70  0.00
  23                      1.00   0.00  0.00  0.00  1.00  0.00  0.00  0.00  0.85  0.00
  24                      1.00   0.00  0.00  0.00  1.00  0.00  0.00  0.00  0.84  0.00
  25                      1.00   0.00  0.00  0.00  1.00  0.00  0.00  0.00  0.70  0.00
  26                      1.00   0.00  0.00  0.00  1.00  0.00  0.00  0.00  0.68  0.00
  27                      1.00   0.00  0.00  0.00  1.00  0.00  0.00  0.00  0.00  0.00
  28                      1.00   0.00  0.00  0.00  1.00  0.00  0.00  0.00  0.02  0.00
  29                      1.00   0.00  0.00  0.00  1.00  0.00  0.00  0.00  0.89  0.00
  30                      1.00   0.00  0.00  0.00  1.00  0.00  0.00  0.00  0.75  0.00
  31                      1.00   0.00  0.00  0.00  0.99  0.01  0.00  0.00  0.74  0.00
  32                      1.00   0.00  0.00  0.00  1.00  0.00  0.00  0.00  0.11  0.00
  33                      1.00   0.00  0.00  0.00  1.00  0.00  0.00  0.00  0.91  0.00
  34                      1.00   0.00  0.00  0.00  1.00  0.00  0.00  0.00  0.00  0.00
  35                      1.00   0.00  0.00  0.00  0.05  0.95  0.00  0.00  0.00  0.00
  36                      1.00   0.00  0.00  0.00  1.00  0.00  0.00  0.00  0.00  0.00
  37                      1.00   0.00  0.00  0.00  1.00  0.00  0.00  0.00  0.00  0.00
  
  
  *************************
  Conduit Surcharge Summary
  *************************
  
  ----------------------------------------------------------------------------
                                                           Hours        Hours 
                         --------- Hours Full --------   Above Full   Capacity
  Conduit                Both Ends  Upstream  Dnstream   Normal Flow   Limited
  ----------------------------------------------------------------------------
  3                           0.01      0.01   3922.06      0.01         0.01
  4                         545.86    545.86    798.02      0.01         0.01
  7                           0.01      0.01     32.11      0.01         0.01
  8                          32.11     32.11    622.13      0.01         0.01
  9                         622.13    622.13   1272.58      0.01         0.01
  10                          0.01      0.01     48.06      0.01         0.01
  11                         48.06     48.06     95.35      0.01         0.01
  12                         95.35     95.35    144.16      0.01         0.01
  13                        144.16    144.16    280.44      0.01         0.01
  14                        280.44    280.44   3311.83     64.93        69.59
  19                          0.01      0.01   7845.15      0.01         0.01
  20                        470.07    470.07    742.79      0.01         0.01
  21                        798.02    798.02    975.90      0.65         0.01
  22                        975.90    975.90   1051.86      0.16         0.03
  23                       1051.86   1051.86   1162.57      0.01         0.01
  24                       1162.57   1162.57   1272.58    127.94       138.38
  25                       1272.58   1272.58   2304.06   1141.92      1143.84
  26                       2304.06   2304.06   3311.83      0.01         0.01
  27                        589.55   3311.83    589.55   3014.50       589.55
  28                        589.55    589.55    723.30      3.26         9.12
  29                        723.30    723.30   1519.65      0.01         0.01
  30                       1519.65   1519.65   7845.15     57.70        69.72
  31                         81.38     81.38   2304.06    731.50         0.01
  32                         81.38     81.38   6968.98      0.01         0.01
  33                        589.55    589.55   3390.29    234.29       239.57
  34                          0.01      0.01   7843.20   1757.80         0.01
  35                          0.01     81.38      0.01     27.88         0.01
  36                          0.01   3390.29      0.01   7225.24         0.01
  37                          0.01      0.01      0.01   4569.27         0.01
  

  Analysis begun on:  Wed Apr 15 06:22:10 2020
  Analysis ended on:  Wed Apr 15 06:57:20 2020
  Total elapsed time: 00:35:10