
  EPA STORM WATER MANAGEMENT MODEL - VERSION 5.1 (Build 5.1.013)
  --------------------------------------------------------------

  Template input file for Gottesacker karst system.  
  Based on input files created by Zhao Chen. 
  Modified by Chloe Fandel: 
  
  WARNING 04: minimum elevation drop used for Conduit 36
  WARNING 04: minimum elevation drop used for Conduit 37
  
  *********************************************************
  NOTE: The summary statistics displayed in this report are
  based on results found at every computational time step,  
  not just on results from each reporting time step.
  *********************************************************
  
  ****************
  Analysis Options
  ****************
  Flow Units ............... LPS
  Process Models:
    Rainfall/Runoff ........ YES
    RDII ................... NO
    Snowmelt ............... NO
    Groundwater ............ NO
    Flow Routing ........... YES
    Ponding Allowed ........ NO
    Water Quality .......... NO
  Infiltration Method ...... HORTON
  Flow Routing Method ...... DYNWAVE
  Surcharge Method ......... EXTRAN
  Starting Date ............ 11/14/2013 00:00:00
  Ending Date .............. 10/11/2014 00:00:00
  Antecedent Dry Days ...... 0.0
  Report Time Step ......... 01:00:00
  Wet Time Step ............ 00:30:00
  Dry Time Step ............ 01:00:00
  Routing Time Step ........ 30.00 sec
  Variable Time Step ....... YES
  Maximum Trials ........... 8
  Number of Threads ........ 4
  Head Tolerance ........... 0.001524 m
  
  
  **************************        Volume         Depth
  Runoff Quantity Continuity     hectare-m            mm
  **************************     ---------       -------
  Total Precipitation ......      2501.060       761.068
  Evaporation Loss .........         0.000         0.000
  Infiltration Loss ........         0.000         0.000
  Surface Runoff ...........      2500.232       760.816
  Final Storage ............         1.354         0.412
  Continuity Error (%) .....        -0.021
  
  
  **************************        Volume        Volume
  Flow Routing Continuity        hectare-m      10^6 ltr
  **************************     ---------     ---------
  Dry Weather Inflow .......         0.000         0.000
  Wet Weather Inflow .......      2500.229     25002.547
  Groundwater Inflow .......         0.000         0.000
  RDII Inflow ..............         0.000         0.000
  External Inflow ..........         1.783        17.832
  External Outflow .........      2422.154     24221.789
  Flooding Loss ............        80.480       804.813
  Evaporation Loss .........         0.000         0.000
  Exfiltration Loss ........         0.000         0.000
  Initial Stored Volume ....         0.000         0.000
  Final Stored Volume ......         0.124         1.236
  Continuity Error (%) .....        -0.030
  
  
  ***************************
  Time-Step Critical Elements
  ***************************
  Link 37 (99.97%)
  
  
  ********************************
  Highest Flow Instability Indexes
  ********************************
  All links are stable.
  
  
  *************************
  Routing Time Step Summary
  *************************
  Minimum Time Step           :     0.45 sec
  Average Time Step           :     0.60 sec
  Maximum Time Step           :    30.00 sec
  Percent in Steady State     :     0.30
  Average Iterations per Step :     2.05
  Percent Not Converging      :     0.41
  
  
  ***************************
  Subcatchment Runoff Summary
  ***************************
  
  ------------------------------------------------------------------------------------------------------------------------------
                            Total      Total      Total      Total     Imperv       Perv      Total       Total     Peak  Runoff
                           Precip      Runon       Evap      Infil     Runoff     Runoff     Runoff      Runoff   Runoff   Coeff
  Subcatchment                 mm         mm         mm         mm         mm         mm         mm    10^6 ltr      LPS
  ------------------------------------------------------------------------------------------------------------------------------
  S1                         0.00       0.00       0.00       0.00       0.00       0.00       0.00        0.00     0.00   0.000
  S2                         0.00       0.00       0.00       0.00       0.00       0.00       0.00        0.00     0.00   0.000
  S3                         0.00       0.00       0.00       0.00       0.00       0.00       0.00        0.00     0.00   0.000
  S4                         0.00       0.00       0.00       0.00       0.00       0.00       0.00        0.00     0.00   0.000
  S5                       502.95       0.00       0.00       0.00     502.68       0.00     502.68      424.77   213.38   0.999
  S6                      1061.54       0.00       0.00       0.00    1061.69       0.00    1061.69      368.94   262.37   1.000
  S7                      1025.22       0.00       0.00       0.00    1025.31       0.00    1025.31      371.68   262.35   1.000
  S8                      1033.18       0.00       0.00       0.00    1033.25       0.00    1033.25      322.89   232.04   1.000
  S9                       995.32       0.00       0.00       0.00     995.37       0.00     995.37      395.66   274.03   1.000
  S10                     1186.51       0.00       0.00       0.00    1186.73       0.00    1186.73      519.20   546.08   1.000
  S11                     1385.10       0.00       0.00       0.00    1385.52       0.00    1385.52      498.79   466.98   1.000
  S12                     1036.22       0.00       0.00       0.00    1036.14       0.00    1036.14      841.87   614.86   1.000
  S13                     1150.07       0.00       0.00       0.00    1149.95       0.00    1149.95     1129.83   806.26   1.000
  S14                      942.82       0.00       0.00       0.00     942.75       0.00     942.75      648.15   455.08   1.000
  S15                     1311.93       0.00       0.00       0.00    1311.77       0.00    1311.77     1613.49  1118.77   1.000
  S16                     1292.86       0.00       0.00       0.00    1293.18       0.00    1293.18      484.95   498.34   1.000
  S17                      770.39       0.00       0.00       0.00     770.36       0.00     770.36      381.33   362.19   1.000
  S18                      109.31       0.00       0.00       0.00     109.10       0.00     109.10       85.64    34.42   0.998
  S19                        0.00       0.00       0.00       0.00       0.00       0.00       0.00        0.00     0.00   0.000
  S20                        0.00       0.00       0.00       0.00       0.00       0.00       0.00        0.00     0.00   0.000
  S21                        0.00       0.00       0.00       0.00       0.00       0.00       0.00        0.00     0.00   0.000
  S22                        0.00       0.00       0.00       0.00       0.00       0.00       0.00        0.00     0.00   0.000
  S23                      746.94       0.00       0.00       0.00     746.24       0.00     746.24     2205.14  1031.99   0.999
  S24                     1070.66       0.00       0.00       0.00    1070.37       0.00    1070.37     1335.30   769.62   1.000
  S25                     1314.94       0.00       0.00       0.00    1314.53       0.00    1314.53     2343.16  1316.65   1.000
  S26                     1334.66       0.00       0.00       0.00    1333.96       0.00    1333.96     4141.96  2106.27   0.999
  S27                     1413.87       0.00       0.00       0.00    1413.56       0.00    1413.56     2540.89  1594.95   1.000
  S28                     1201.81       0.00       0.00       0.00    1201.10       0.00    1201.10     3990.69  2030.49   0.999
  S29                        0.00       0.00       0.00       0.00       0.00       0.00       0.00        0.00     0.00   0.000
  S30                        0.00       0.00       0.00       0.00       0.00       0.00       0.00        0.00     0.00   0.000
  S31                        0.00       0.00       0.00       0.00       0.00       0.00       0.00        0.00     0.00   0.000
  S32                        0.00       0.00       0.00       0.00       0.00       0.00       0.00        0.00     0.00   0.000
  S33                     1362.10       0.00       0.00       0.00    1363.25       0.00    1363.25      132.92   143.90   1.001
  S34                     1356.04       0.00       0.00       0.00    1358.31       0.00    1358.31       30.56    37.33   1.002
  S35                        0.00       0.00       0.00       0.00       0.00       0.00       0.00        0.00     0.00   0.000
  S36                        0.00       0.00       0.00       0.00       0.00       0.00       0.00        0.00     0.00   0.000
  S37                     1365.11       0.00       0.00       0.00    1366.04       0.00    1366.04      194.66   201.10   1.001
  S38                        0.00       0.00       0.00       0.00       0.00       0.00       0.00        0.00     0.00   0.000
  S39                        0.00       0.00       0.00       0.00       0.00       0.00       0.00        0.00     0.00   0.000
  
  
  ******************
  Node Depth Summary
  ******************
  
  ---------------------------------------------------------------------------------
                                 Average  Maximum  Maximum  Time of Max    Reported
                                   Depth    Depth      HGL   Occurrence   Max Depth
  Node                 Type       Meters   Meters   Meters  days hr:min      Meters
  ---------------------------------------------------------------------------------
  0                    JUNCTION     0.00     0.00  1900.00     0  00:00        0.00
  1                    JUNCTION     0.00     0.00  1731.39     0  00:00        0.00
  2                    JUNCTION     0.00     0.00  1624.09     0  00:00        0.00
  3                    JUNCTION     0.00     0.00  1516.79     0  00:00        0.00
  4                    JUNCTION     0.23    67.62  1477.11   237  05:18       64.52
  5                    JUNCTION     0.02     0.13  1900.13   259  03:02        0.13
  6                    JUNCTION     0.04     0.20  1710.87   259  03:05        0.20
  7                    JUNCTION     0.04     0.24  1587.77   259  03:08        0.24
  8                    JUNCTION     0.05     0.27  1464.67   259  03:11        0.27
  9                    JUNCTION     0.26   127.30  1468.56   259  03:33       66.54
  10                   JUNCTION     0.03     0.18  1700.18   262  21:00        0.18
  11                   JUNCTION     0.05     0.29  1551.91   262  21:03        0.29
  12                   JUNCTION     0.07     1.45  1443.08   262  22:54        1.45
  13                   JUNCTION     0.84   134.69  1466.33   262  20:54      111.41
  14                   JUNCTION     2.32   121.72  1343.37   262  20:05       87.44
  15                   JUNCTION     0.03     0.17  1700.17   262  21:00        0.17
  16                   JUNCTION     0.04     0.25  1493.00   262  21:02        0.25
  17                   JUNCTION     0.04     0.26  1360.26   262  21:05        0.26
  18                   JUNCTION     0.04     0.26  1248.65   262  21:08        0.26
  19                   JUNCTION     0.09     0.53  1137.31   262  21:14        0.53
  20                   JUNCTION     0.03    31.15  1477.15   237  05:18       28.01
  21                   JUNCTION     2.00   176.80  1476.80   237  05:18      174.01
  22                   JUNCTION     2.98   195.29  1475.29   237  05:18      194.01
  23                   JUNCTION     3.89   204.00  1474.00   237  05:18      204.00
  24                   JUNCTION     2.10   143.27  1383.27   262  20:21       91.57
  25                   JUNCTION     3.26   171.58  1381.58   262  20:21      121.48
  26                   JUNCTION    15.57   204.00  1330.79   168  22:20      204.00
  27                   JUNCTION    22.68   204.00  1309.00   168  22:12      204.00
  28                   JUNCTION     2.19    56.90  1154.77   262  20:05       51.56
  29                   JUNCTION     2.66    61.00  1135.53   262  20:05       56.77
  30                   JUNCTION     4.08    65.31  1116.51   262  21:14       64.10
  31                   JUNCTION    13.10    69.58  1097.44   262  21:14       67.94
  32                   JUNCTION     0.30    12.87  1154.87   259  01:16       12.54
  33                   JUNCTION    21.04    37.46  1157.46   239  05:52       34.56
  34                   JUNCTION     3.30    25.95  1105.95   262  20:05       23.88
  35                   JUNCTION     0.37     0.97  1035.97   262  21:14        0.97
  36                   OUTFALL      0.12     1.00  1121.00   227  17:30        1.00
  37                   OUTFALL      0.29     0.72  1080.72   262  21:14        0.72
  38                   OUTFALL      0.28     0.75  1035.75   262  21:14        0.74
  
  
  *******************
  Node Inflow Summary
  *******************
  
  -------------------------------------------------------------------------------------------------
                                  Maximum  Maximum                  Lateral       Total        Flow
                                  Lateral    Total  Time of Max      Inflow      Inflow     Balance
                                   Inflow   Inflow   Occurrence      Volume      Volume       Error
  Node                 Type           LPS      LPS  days hr:min    10^6 ltr    10^6 ltr     Percent
  -------------------------------------------------------------------------------------------------
  0                    JUNCTION      0.00     0.00     0  00:00           0           0       0.000 ltr
  1                    JUNCTION      0.00     0.00     0  00:00           0           0       0.000 ltr
  2                    JUNCTION      0.00     0.00     0  00:00           0           0       0.000 ltr
  3                    JUNCTION      0.00     0.00     0  00:00           0           0       0.000 ltr
  4                    JUNCTION    213.87  1933.87   259  03:36         426         444      -0.071
  5                    JUNCTION    263.34   263.34   259  03:00         371         371      -0.003
  6                    JUNCTION    263.33   525.06   259  03:01         374         745       0.000
  7                    JUNCTION    233.11   754.33   259  03:04         325    1.07e+03      -0.000
  8                    JUNCTION    274.52  1021.80   259  03:06         398    1.47e+03      -0.018
  9                    JUNCTION    546.40  1379.07   259  03:07         520    1.99e+03       0.008
  10                   JUNCTION    467.05   467.05   262  21:00         499         499      -0.010
  11                   JUNCTION    615.26  1080.15   262  21:00         843    1.34e+03      -0.001
  12                   JUNCTION    806.55  1877.18   262  21:00    1.13e+03    2.47e+03      -0.015
  13                   JUNCTION    455.56  2280.53   262  20:54         650    3.12e+03       0.017
  14                   JUNCTION   1118.88  2856.80   262  20:05    1.61e+03    4.74e+03      -0.049
  15                   JUNCTION    498.34   498.34   262  21:00         485         485      -0.006
  16                   JUNCTION    362.19   858.91   262  21:00         381         866       0.001
  17                   JUNCTION     34.42   878.76   262  21:02        85.6         952       0.000
  18                   JUNCTION      0.00   876.79   262  21:05           0         952      -0.002
  19                   JUNCTION      0.00   874.93   262  21:08           0         952       0.005
  20                   JUNCTION      0.00   496.23   259  06:18           0        7.39      -0.208
  21                   JUNCTION      0.00  2631.24   259  03:33           0         611       0.061
  22                   JUNCTION   1032.03  2743.16   262  20:45    2.21e+03    2.92e+03      -0.013
  23                   JUNCTION    769.62  1963.03   312  01:14    1.34e+03    4.16e+03      -0.064
  24                   JUNCTION   1317.07  4271.75   262  20:21    2.34e+03    6.39e+03      -0.007
  25                   JUNCTION   2106.53  5827.17   237  07:00    4.14e+03    1.25e+04      -0.010
  26                   JUNCTION   1594.95  7334.98   259  03:37    2.54e+03    1.51e+04       0.007
  27                   JUNCTION   2030.70  5766.61   259  03:00    3.99e+03    1.62e+04      -0.006
  28                   JUNCTION      0.00  2438.64   291  13:26           0    1.55e+04       0.001
  29                   JUNCTION      0.00  1078.63   221  18:42           0    7.17e+03      -0.003
  30                   JUNCTION      0.00   976.86   291  13:26           0    7.17e+03      -0.002
  31                   JUNCTION      0.00  1671.20   262  21:14           0    8.12e+03       0.008
  32                   JUNCTION    143.90  3781.29   259  01:15         133    7.55e+03      -0.001
  33                   JUNCTION     37.33    89.73   312  01:14        30.6        30.6       0.000
  34                   JUNCTION      0.00  1570.25   262  21:14           0    8.37e+03       0.003
  35                   JUNCTION      0.00  1671.20   262  21:14           0    8.12e+03       0.000
  36                   OUTFALL     201.10  3685.05   259  03:00         195    7.73e+03       0.000
  37                   OUTFALL       0.00  1570.25   262  21:14           0    8.37e+03       0.000
  38                   OUTFALL       0.00  1671.18   262  21:14           0    8.12e+03       0.000
  
  
  **********************
  Node Surcharge Summary
  **********************
  
  Surcharging occurs when water rises above the top of the highest conduit.
  ---------------------------------------------------------------------
                                               Max. Height   Min. Depth
                                   Hours       Above Crown    Below Rim
  Node                 Type      Surcharged         Meters       Meters
  ---------------------------------------------------------------------
  4                    JUNCTION       33.94         63.623        0.000
  9                    JUNCTION       39.45        123.300        0.000
  13                   JUNCTION       89.87        130.692        0.000
  14                   JUNCTION      218.09        117.719        0.000
  20                   JUNCTION        6.42         27.149        0.000
  21                   JUNCTION      118.25        172.801        0.000
  22                   JUNCTION      289.47        191.292        0.000
  23                   JUNCTION      442.47        200.000        0.000
  24                   JUNCTION      179.58        139.268        0.000
  25                   JUNCTION      258.70        167.580        0.000
  26                   JUNCTION     2112.45        200.000        0.000
  27                   JUNCTION     3047.78        200.000        0.000
  28                   JUNCTION      640.28         55.904        0.000
  29                   JUNCTION      757.08         59.998        0.000
  30                   JUNCTION     1481.36         64.313        0.000
  31                   JUNCTION     7845.72         68.576        0.000
  32                   JUNCTION      170.46         11.866        0.000
  33                   JUNCTION     6968.98         36.456        0.000
  34                   JUNCTION     3629.62         24.948        0.000
  
  
  *********************
  Node Flooding Summary
  *********************
  
  Flooding refers to all water that overflows a node, whether it ponds or not.
  --------------------------------------------------------------------------
                                                             Total   Maximum
                                 Maximum   Time of Max       Flood    Ponded
                        Hours       Rate    Occurrence      Volume     Depth
  Node                 Flooded       LPS   days hr:min    10^6 ltr    Meters
  --------------------------------------------------------------------------
  23                      4.31    430.26    237  07:00       4.013   200.000
  26                     57.19   2940.54    259  03:37     205.149   200.000
  27                    118.27   3358.13    259  03:00     595.648   200.000
  
  
  ***********************
  Outfall Loading Summary
  ***********************
  
  -----------------------------------------------------------
                         Flow       Avg       Max       Total
                         Freq      Flow      Flow      Volume
  Outfall Node           Pcnt       LPS       LPS    10^6 ltr
  -----------------------------------------------------------
  36                    95.98    339.70   3685.05    7731.584
  37                    99.98    349.59   1570.25    8367.489
  38                    99.97    339.44   1671.18    8122.605
  -----------------------------------------------------------
  System                98.65   1028.73   1671.18   24221.678
  
  
  ********************
  Link Flow Summary
  ********************
  
  -----------------------------------------------------------------------------
                                 Maximum  Time of Max   Maximum    Max/    Max/
                                  |Flow|   Occurrence   |Veloc|    Full    Full
  Link                 Type          LPS  days hr:min     m/sec    Flow   Depth
  -----------------------------------------------------------------------------
  0                    CONDUIT      0.00     0  00:00      0.00    0.00    0.00
  1                    CONDUIT      0.00     0  00:00      0.00    0.00    0.00
  2                    CONDUIT      0.00     0  00:00      0.00    0.00    0.00
  3                    CONDUIT      0.00     0  00:00      0.00    0.00    0.50
  4                    CONDUIT   1721.32   259  03:36      1.19    0.01    1.00
  5                    CONDUIT    262.38   259  03:02      1.48    0.00    0.04
  6                    CONDUIT    522.89   259  03:05      1.94    0.01    0.05
  7                    CONDUIT    752.61   259  03:08      2.22    0.01    0.06
  8                    CONDUIT   1019.89   259  03:11      1.19    0.01    0.53
  9                    CONDUIT   1418.84   259  03:33      1.81    0.83    1.00
  10                   CONDUIT    465.32   262  21:00      1.53    0.00    0.06
  11                   CONDUIT   1074.38   262  21:03      2.09    0.01    0.21
  12                   CONDUIT   1831.71   262  20:54      1.15    0.02    0.68
  13                   CONDUIT   1631.90   262  22:55      2.53    1.09    1.00
  14                   CONDUIT   2744.69   262  21:00      0.25    0.03    1.00
  15                   CONDUIT    497.01   262  21:00      1.91    0.00    0.05
  16                   CONDUIT    855.22   262  21:02      2.54    0.01    0.06
  17                   CONDUIT    876.79   262  21:05      2.55    0.01    0.06
  18                   CONDUIT    874.93   262  21:08      1.36    0.01    0.10
  19                   CONDUIT    868.97   262  21:14      1.35    0.55    0.77
  20                   CONDUIT    496.23   259  06:18      0.08    0.00    1.00
  21                   CONDUIT   2418.43   259  03:33      0.51    0.06    1.00
  22                   CONDUIT   2154.29   262  20:45      0.35    0.07    1.00
  23                   CONDUIT   1503.45   237  09:37      1.91    2.17    1.00
  24                   CONDUIT   2704.06   237  07:00      1.51    0.06    1.00
  25                   CONDUIT   5827.18   237  07:00      4.14    0.10    1.00
  26                   CONDUIT   1373.64   262  20:21      2.28    1.25    1.00
  27                   CONDUIT   2438.64   291  13:26      3.10    4.82    1.00
  28                   CONDUIT   1078.63   221  18:42      1.49    1.16    1.00
  29                   CONDUIT    976.86   291  13:26      1.33    0.99    1.00
  30                   CONDUIT    976.86   291  13:26      1.24    1.09    1.00
  31                   CONDUIT   3647.22   262  20:21      4.81    3.73    1.00
  32                   CONDUIT     67.53   312  01:14      0.09    0.04    1.00
  33                   CONDUIT   1570.25   262  21:14      2.00    1.59    1.00
  34                   CONDUIT   1671.20   262  21:14      2.13    3.03    0.99
  35                   CONDUIT   3483.95   259  03:00      4.44    1.14    1.00
  36                   CONDUIT   1570.25   262  21:14      2.18  277.47    0.86
  37                   CONDUIT   1671.18   262  21:14      2.33   23.98    0.86
  
  
  ***************************
  Flow Classification Summary
  ***************************
  
  -------------------------------------------------------------------------------------
                      Adjusted    ---------- Fraction of Time in Flow Class ---------- 
                       /Actual         Up    Down  Sub   Sup   Up    Down  Norm  Inlet 
  Conduit               Length    Dry  Dry   Dry   Crit  Crit  Crit  Crit  Ltd   Ctrl  
  -------------------------------------------------------------------------------------
  0                       1.00   1.00  0.00  0.00  0.00  0.00  0.00  0.00  0.00  0.00
  1                       1.00   1.00  0.00  0.00  0.00  0.00  0.00  0.00  0.00  0.00
  2                       1.00   1.00  0.00  0.00  0.00  0.00  0.00  0.00  0.00  0.00
  3                       1.00   0.00  1.00  0.00  0.00  0.00  0.00  0.00  0.00  0.00
  4                       1.00   0.00  0.00  0.00  0.83  0.17  0.00  0.00  0.98  0.00
  5                       1.00   0.00  0.00  0.00  0.64  0.36  0.00  0.00  0.99  0.00
  6                       1.00   0.00  0.00  0.00  0.43  0.57  0.00  0.00  0.99  0.00
  7                       1.00   0.00  0.00  0.00  0.36  0.64  0.00  0.00  0.99  0.00
  8                       1.00   0.00  0.00  0.00  1.00  0.00  0.00  0.00  0.99  0.00
  9                       1.00   0.00  0.00  0.00  1.00  0.00  0.00  0.00  0.98  0.00
  10                      1.00   0.00  0.00  0.00  0.91  0.09  0.00  0.00  0.99  0.00
  11                      1.00   0.00  0.00  0.00  0.57  0.43  0.00  0.00  0.99  0.00
  12                      1.00   0.00  0.00  0.00  1.00  0.00  0.00  0.00  0.99  0.00
  13                      1.00   0.00  0.00  0.00  0.04  0.96  0.00  0.00  0.01  0.00
  14                      1.00   0.00  0.00  0.00  1.00  0.00  0.00  0.00  0.96  0.00
  15                      1.00   0.00  0.00  0.00  0.59  0.41  0.00  0.00  0.99  0.00
  16                      1.00   0.00  0.00  0.00  0.33  0.67  0.00  0.00  0.98  0.00
  17                      1.00   0.00  0.00  0.00  0.20  0.80  0.00  0.00  0.00  0.00
  18                      1.00   0.00  0.00  0.00  1.00  0.00  0.00  0.00  0.99  0.00
  19                      1.00   0.00  0.00  0.00  1.00  0.00  0.00  0.00  0.99  0.00
  20                      1.00   0.00  0.99  0.00  0.01  0.00  0.00  0.00  0.31  0.00
  21                      1.00   0.00  0.00  0.00  1.00  0.00  0.00  0.00  0.96  0.00
  22                      1.00   0.00  0.00  0.00  1.00  0.00  0.00  0.00  0.94  0.00
  23                      1.00   0.00  0.00  0.00  1.00  0.00  0.00  0.00  0.00  0.00
  24                      1.00   0.00  0.00  0.00  1.00  0.00  0.00  0.00  0.96  0.00
  25                      1.00   0.00  0.00  0.00  1.00  0.00  0.00  0.00  0.94  0.00
  26                      1.00   0.00  0.00  0.00  1.00  0.00  0.00  0.00  0.64  0.00
  27                      1.00   0.00  0.00  0.00  1.00  0.00  0.00  0.00  0.00  0.00
  28                      1.00   0.00  0.00  0.00  1.00  0.00  0.00  0.00  0.02  0.00
  29                      1.00   0.00  0.00  0.00  1.00  0.00  0.00  0.00  0.88  0.00
  30                      1.00   0.00  0.00  0.00  1.00  0.00  0.00  0.00  0.77  0.00
  31                      1.00   0.00  0.00  0.00  0.98  0.02  0.00  0.00  0.75  0.00
  32                      1.00   0.00  0.00  0.00  1.00  0.00  0.00  0.00  0.11  0.00
  33                      1.00   0.00  0.00  0.00  1.00  0.00  0.00  0.00  0.90  0.00
  34                      1.00   0.00  0.00  0.00  1.00  0.00  0.00  0.00  0.00  0.00
  35                      1.00   0.00  0.00  0.00  0.06  0.94  0.00  0.00  0.00  0.00
  36                      1.00   0.00  0.00  0.00  1.00  0.00  0.00  0.00  0.00  0.00
  37                      1.00   0.00  0.00  0.00  1.00  0.00  0.00  0.00  0.00  0.00
  
  
  *************************
  Conduit Surcharge Summary
  *************************
  
  ----------------------------------------------------------------------------
                                                           Hours        Hours 
                         --------- Hours Full --------   Above Full   Capacity
  Conduit                Both Ends  Upstream  Dnstream   Normal Flow   Limited
  ----------------------------------------------------------------------------
  4                          33.94     33.94    118.25      0.01         0.01
  8                           0.01      0.01     39.45      0.01         0.01
  9                         103.29    103.29    367.48      0.01         0.01
  12                          0.01      0.01     89.87      0.01         0.01
  13                        155.51    155.51    251.02     17.63        18.09
  14                        218.09    218.09   3047.77      0.01         0.01
  19                          0.01      0.01   7845.72      0.01         0.01
  20                          6.42      6.42    348.54      0.01         0.01
  21                        118.25    118.25    289.47      0.01         0.01
  22                        289.47    289.47    442.46      0.01         0.01
  23                        217.68    681.25    217.68    267.47       163.24
  24                        179.58    179.58    258.70      0.01         0.01
  25                        258.70    258.70   2112.44      0.01         0.01
  26                       2738.95   2738.95   3615.56      1.11         0.01
  27                        640.27   3615.56    640.27   2985.49       640.27
  28                        639.94    640.27    757.07    124.37       139.87
  29                        757.07    757.07   1481.36      0.01         0.01
  30                       1481.36   1481.36   7845.72    168.38       171.51
  31                        170.46    170.46   2738.95    761.72         0.01
  32                        170.46    170.46   6968.98      0.01         0.01
  33                        640.27    640.27   3629.62    400.99       409.97
  34                          0.01      0.01   7843.78   1678.00         0.01
  35                          9.85    170.46      9.85    138.37         9.85
  36                          0.01   3629.62      0.01   7223.91         0.01
  37                          0.01      0.01      0.01   4573.45         0.01
  

  Analysis begun on:  Wed Apr 15 08:01:02 2020
  Analysis ended on:  Wed Apr 15 08:34:26 2020
  Total elapsed time: 00:33:24