
  EPA STORM WATER MANAGEMENT MODEL - VERSION 5.1 (Build 5.1.013)
  --------------------------------------------------------------

  Template input file for Gottesacker karst system.  
  Based on input files created by Zhao Chen. 
  Modified by Chloe Fandel: 
  
  WARNING 08: elevation drop exceeds length for Conduit 2
  WARNING 04: minimum elevation drop used for Conduit 3
  WARNING 04: minimum elevation drop used for Conduit 6
  WARNING 08: elevation drop exceeds length for Conduit 7
  WARNING 08: elevation drop exceeds length for Conduit 8
  WARNING 04: minimum elevation drop used for Conduit 15
  WARNING 04: minimum elevation drop used for Conduit 17
  WARNING 04: minimum elevation drop used for Conduit 18
  WARNING 04: minimum elevation drop used for Conduit 28
  
  *********************************************************
  NOTE: The summary statistics displayed in this report are
  based on results found at every computational time step,  
  not just on results from each reporting time step.
  *********************************************************
  
  ****************
  Analysis Options
  ****************
  Flow Units ............... LPS
  Process Models:
    Rainfall/Runoff ........ YES
    RDII ................... NO
    Snowmelt ............... NO
    Groundwater ............ NO
    Flow Routing ........... YES
    Ponding Allowed ........ NO
    Water Quality .......... NO
  Infiltration Method ...... HORTON
  Flow Routing Method ...... DYNWAVE
  Surcharge Method ......... EXTRAN
  Starting Date ............ 11/14/2013 00:00:00
  Ending Date .............. 10/11/2014 00:00:00
  Antecedent Dry Days ...... 0.0
  Report Time Step ......... 01:00:00
  Wet Time Step ............ 00:30:00
  Dry Time Step ............ 01:00:00
  Routing Time Step ........ 30.00 sec
  Variable Time Step ....... YES
  Maximum Trials ........... 8
  Number of Threads ........ 4
  Head Tolerance ........... 0.001524 m
  
  
  **************************        Volume         Depth
  Runoff Quantity Continuity     hectare-m            mm
  **************************     ---------       -------
  Total Precipitation ......      1876.070       691.193
  Evaporation Loss .........         0.000         0.000
  Infiltration Loss ........         0.000         0.000
  Surface Runoff ...........      1873.345       690.189
  Final Storage ............         3.029         1.116
  Continuity Error (%) .....        -0.016
  
  
  **************************        Volume        Volume
  Flow Routing Continuity        hectare-m      10^6 ltr
  **************************     ---------     ---------
  Dry Weather Inflow .......         0.000         0.000
  Wet Weather Inflow .......      1873.342     18733.613
  Groundwater Inflow .......         0.000         0.000
  RDII Inflow ..............         0.000         0.000
  External Inflow ..........         1.698        16.982
  External Outflow .........      4294.029     42940.737
  Flooding Loss ............        22.894       228.943
  Evaporation Loss .........         0.000         0.000
  Exfiltration Loss ........         0.000         0.000
  Initial Stored Volume ....         0.000         0.000
  Final Stored Volume ......         1.819        18.189
  Continuity Error (%) .....      -130.328
  
  
  *************************
  Highest Continuity Errors
  *************************
  Node 16 (-2873.90%)
  Node 13 (-511.18%)
  Node 14 (-183.18%)
  Node 11 (-16.33%)
  Node 15 (-2.62%)
  
  
  ***************************
  Time-Step Critical Elements
  ***************************
  Link 31 (89.43%)
  Link 29 (8.79%)
  Link 28 (1.01%)
  
  
  ********************************
  Highest Flow Instability Indexes
  ********************************
  Link 18 (121)
  Link 19 (107)
  Link 15 (95)
  Link 13 (87)
  Link 21 (30)
  
  
  *************************
  Routing Time Step Summary
  *************************
  Minimum Time Step           :     2.14 sec
  Average Time Step           :    13.08 sec
  Maximum Time Step           :    30.00 sec
  Percent in Steady State     :     0.30
  Average Iterations per Step :     7.76
  Percent Not Converging      :    95.26
  
  
  ***************************
  Subcatchment Runoff Summary
  ***************************
  
  ------------------------------------------------------------------------------------------------------------------------------
                            Total      Total      Total      Total     Imperv       Perv      Total       Total     Peak  Runoff
                           Precip      Runon       Evap      Infil     Runoff     Runoff     Runoff      Runoff   Runoff   Coeff
  Subcatchment                 mm         mm         mm         mm         mm         mm         mm    10^6 ltr      LPS
  ------------------------------------------------------------------------------------------------------------------------------
  S1                         0.00       0.00       0.00       0.00       0.00       0.00       0.00        0.00     0.00   0.000
  S2                         0.00       0.00       0.00       0.00       0.00       0.00       0.00        0.00     0.00   0.000
  S4                         0.00       0.00       0.00       0.00       0.00       0.00       0.00        0.00     0.00   0.000
  S7                         0.00       0.00       0.00       0.00       0.00       0.00       0.00        0.00     0.00   0.000
  S8                      1031.42       0.00       0.00       0.00    1032.06       0.00    1032.06       64.50    55.73   1.001
  S9                      1025.22       0.00       0.00       0.00    1025.31       0.00    1025.31      371.68   262.35   1.000
  S10                     1385.10       0.00       0.00       0.00    1385.52       0.00    1385.52      498.79   466.98   1.000
  S11                     1067.22       0.00       0.00       0.00    1067.43       0.00    1067.43      304.22   223.10   1.000
  S12                      986.20       0.00       0.00       0.00     986.34       0.00     986.34      367.42   312.39   1.000
  S13                     1095.88       0.00       0.00       0.00    1096.03       0.00    1096.03      482.26   414.04   1.000
  S14                      977.89       0.00       0.00       0.00     978.35       0.00     978.35      134.52   153.20   1.000
  S15                     1323.24       0.00       0.00       0.00    1324.30       0.00    1324.30      115.88   125.53   1.001
  S16                     1001.87       0.00       0.00       0.00    1002.10       0.00    1002.10      283.10   278.35   1.000
  S17                     1351.68       0.00       0.00       0.00    1352.75       0.00    1352.75      121.75   137.41   1.001
  S18                      973.25       0.00       0.00       0.00     974.33       0.00     974.33       29.23    35.76   1.001
  S19                     1574.01       0.00       0.00       0.00    1574.39       0.00    1574.39      625.82   478.24   1.000
  S20                     1292.86       0.00       0.00       0.00    1293.18       0.00    1293.18      484.95   498.34   1.000
  S21                     1129.79       0.00       0.00       0.00    1130.01       0.00    1130.01      449.18   373.16   1.000
  S22                     1148.78       0.00       0.00       0.00    1148.42       0.00    1148.42     1714.03  1002.50   1.000
  S23                      770.39       0.00       0.00       0.00     770.36       0.00     770.36      381.33   362.19   1.000
  S24                        0.00       0.00       0.00       0.00       0.00       0.00       0.00        0.00     0.00   0.000
  S25                      809.29       0.00       0.00       0.00     807.48       0.00     807.48    12090.03  4540.50   0.998
  S26                     1369.60       0.00       0.00       0.00    1371.06       0.00    1371.06       82.26    92.06   1.001
  S27                       22.11       0.00       0.00       0.00      21.88       0.00      21.88       81.55    15.50   0.989
  S28                     1359.91       0.00       0.00       0.00    1361.72       0.00    1361.72       51.06    60.01   1.001
  S29                        0.00       0.00       0.00       0.00       0.00       0.00       0.00        0.00     0.00   0.000
  S30                        0.00       0.00       0.00       0.00       0.00       0.00       0.00        0.00     0.00   0.000
  
  
  ******************
  Node Depth Summary
  ******************
  
  ---------------------------------------------------------------------------------
                                 Average  Maximum  Maximum  Time of Max    Reported
                                   Depth    Depth      HGL   Occurrence   Max Depth
  Node                 Type       Meters   Meters   Meters  days hr:min      Meters
  ---------------------------------------------------------------------------------
  0                    JUNCTION     0.00     0.00  1872.50     0  00:00        0.00
  1                    JUNCTION     0.00     0.00  1707.50     0  00:00        0.00
  2                    JUNCTION     0.00     0.00  1735.00     0  00:00        0.00
  3                    JUNCTION     0.00     0.00  1707.50     0  00:00        0.00
  4                    JUNCTION     0.00     0.00  1735.00     0  00:00        0.00
  5                    JUNCTION     0.00     0.00  1762.50     0  00:00        0.00
  6                    JUNCTION     0.00     0.00  1432.50     0  00:00        0.00
  7                    JUNCTION     0.01     0.07  1955.07   259  03:03        0.07
  8                    JUNCTION     0.02     0.12  1927.62   259  03:01        0.12
  9                    JUNCTION     0.02     0.16  1762.66   262  21:00        0.16
  10                   JUNCTION     0.04     0.20  1790.20   259  03:08        0.20
  11                   JUNCTION    28.26    29.96  1654.96   262  21:02       29.95
  12                   JUNCTION     0.03     0.17  1707.67   262  21:00        0.17
  13                   JUNCTION     0.86     2.45  1654.95   262  21:02        2.45
  14                   JUNCTION     0.02     0.17  1680.17   259  03:00        0.17
  15                   JUNCTION     0.69     1.77  1654.27   262  21:00        1.77
  16                   JUNCTION     0.00     0.03  1680.03   262  19:00        0.03
  17                   JUNCTION     0.24     0.90  1653.40   262  21:00        0.90
  18                   JUNCTION     0.04     0.22  1350.22   259  03:20        0.22
  19                   JUNCTION     0.03     0.18  1680.18   262  21:01        0.18
  20                   JUNCTION     0.28     1.10  1543.60   262  21:02        1.10
  21                   JUNCTION     0.40    24.73  1319.73   262  20:05       18.21
  22                   JUNCTION    55.47   123.78  1611.28   262  21:04      123.14
  23                   JUNCTION     0.02    41.29  1611.29   262  21:04       40.64
  24                   JUNCTION    21.60   204.00  1306.50   227  14:56      204.00
  25                   JUNCTION    17.25   171.92  1274.42   262  21:00      171.92
  26                   JUNCTION    17.26    22.06  1042.06   259  08:00       22.06
  27                   OUTFALL      0.25     1.00  1121.00   140  15:03        1.00
  28                   OUTFALL      0.31     0.79  1080.79   262  21:00        0.79
  29                   OUTFALL      0.33     0.56  1035.56   259  08:00        0.56
  
  
  *******************
  Node Inflow Summary
  *******************
  
  -------------------------------------------------------------------------------------------------
                                  Maximum  Maximum                  Lateral       Total        Flow
                                  Lateral    Total  Time of Max      Inflow      Inflow     Balance
                                   Inflow   Inflow   Occurrence      Volume      Volume       Error
  Node                 Type           LPS      LPS  days hr:min    10^6 ltr    10^6 ltr     Percent
  -------------------------------------------------------------------------------------------------
  0                    JUNCTION      0.00     0.00     0  00:00           0           0       0.000 ltr
  1                    JUNCTION      0.00     0.00     0  00:00           0           0       0.000 ltr
  2                    JUNCTION      0.00     0.00     0  00:00           0           0       0.000 ltr
  3                    JUNCTION      0.00     0.00     0  00:00           0           0       0.000 ltr
  4                    JUNCTION      0.00     0.00     0  00:00           0           0       0.000 ltr
  5                    JUNCTION      0.00     0.00     0  00:00           0           0       0.000 ltr
  6                    JUNCTION      0.00     0.00     0  00:00           0           0       0.000 ltr
  7                    JUNCTION     56.81    56.81   259  03:00        66.6        66.6      -0.091
  8                    JUNCTION    263.34   263.34   259  03:00         374         374       0.000
  9                    JUNCTION    467.05   467.05   262  21:00         499         499       0.000
  10                   JUNCTION    224.06   542.73   259  03:00         306         746       0.010
  11                   JUNCTION    312.85  3300.50     2  14:07         369    1.63e+03     -14.035
  12                   JUNCTION    414.39   414.39   262  21:00         484         484       0.000
  13                   JUNCTION    153.30 18529.49   262  20:11         135    3.69e+03     -83.638
  14                   JUNCTION    125.63   600.79   262  21:00         116         588     -64.687
  15                   JUNCTION    278.87  9025.78   259  03:00         285    2.65e+04      -2.556
  16                   JUNCTION    137.49   137.67   262  21:00         122         122     -96.637
  17                   JUNCTION     37.29 12520.58   262  21:00          31    2.72e+04      -0.046
  18                   JUNCTION    478.24   478.24   259  03:00         626         626      -0.016
  19                   JUNCTION    498.34   498.34   262  21:00         485         485      -0.000
  20                   JUNCTION    373.44 13675.73   262  21:00         450    2.85e+04      -0.009
  21                   JUNCTION   1002.84 15005.25   262  21:02    1.72e+03    3.09e+04      -0.016
  22                   JUNCTION    362.19   857.72   262  21:00         381         874       0.858
  23                   JUNCTION      0.00   104.46   262  19:01           0      0.0617       0.000
  24                   JUNCTION   4540.53 17558.15   262  21:02    1.21e+04     4.3e+04       0.012
  25                   JUNCTION     92.06  1929.82   227  14:56        82.3    1.05e+04       0.002
  26                   JUNCTION     15.50  1382.78   259  08:00        81.5    1.46e+04       0.007
  27                   OUTFALL      60.01  6106.03   262  21:00        51.1    1.78e+04       0.000
  28                   OUTFALL       0.00  1902.36   262  21:00           0    1.05e+04       0.000
  29                   OUTFALL       0.00  1382.78   259  08:00           0    1.46e+04       0.000
  
  
  **********************
  Node Surcharge Summary
  **********************
  
  Surcharging occurs when water rises above the top of the highest conduit.
  ---------------------------------------------------------------------
                                               Max. Height   Min. Depth
                                   Hours       Above Crown    Below Rim
  Node                 Type      Surcharged         Meters       Meters
  ---------------------------------------------------------------------
  11                   JUNCTION     7881.97         25.962        0.000
  21                   JUNCTION       32.29         20.727        0.000
  22                   JUNCTION     7841.99        119.783        0.000
  23                   JUNCTION        3.80         40.288        0.000
  24                   JUNCTION     2388.12        200.000        0.000
  25                   JUNCTION     2480.01        170.920        0.000
  26                   JUNCTION     7880.43         21.057        0.000
  
  
  *********************
  Node Flooding Summary
  *********************
  
  Flooding refers to all water that overflows a node, whether it ponds or not.
  --------------------------------------------------------------------------
                                                             Total   Maximum
                                 Maximum   Time of Max       Flood    Ponded
                        Hours       Rate    Occurrence      Volume     Depth
  Node                 Flooded       LPS   days hr:min    10^6 ltr    Meters
  --------------------------------------------------------------------------
  24                     28.31   8301.89    262  21:02     228.940   200.000
  
  
  ***********************
  Outfall Loading Summary
  ***********************
  
  -----------------------------------------------------------
                         Flow       Avg       Max       Total
                         Freq      Flow      Flow      Volume
  Outfall Node           Pcnt       LPS       LPS    10^6 ltr
  -----------------------------------------------------------
  27                    79.65   1042.03   6106.03   17808.182
  28                    99.67    459.14   1902.36   10499.311
  29                    99.65    586.02   1382.78   14633.048
  -----------------------------------------------------------
  System                92.99   2087.20   1382.78   42940.541
  
  
  ********************
  Link Flow Summary
  ********************
  
  -----------------------------------------------------------------------------
                                 Maximum  Time of Max   Maximum    Max/    Max/
                                  |Flow|   Occurrence   |Veloc|    Full    Full
  Link                 Type          LPS  days hr:min     m/sec    Flow   Depth
  -----------------------------------------------------------------------------
  0                    CONDUIT      0.00     0  00:00      0.00    0.00    0.00
  1                    CONDUIT      0.00     0  00:00      0.00    0.00    0.03
  2                    CONDUIT      0.00     0  00:00      0.00    0.00    0.00
  3                    CONDUIT      0.00     0  00:00      0.00    0.00    0.00
  4                    CONDUIT      0.00     0  00:00      0.00    0.00    0.03
  5                    CONDUIT    459.40   259  03:20      0.62    0.01    0.53
  6                    CONDUIT      0.00     0  00:00      0.00    0.00    0.00
  7                    CONDUIT      0.00     0  00:00      0.00    0.00    0.00
  8                    CONDUIT      0.00     0  00:00      0.00    0.00    0.00
  9                    CONDUIT     56.21   259  03:03      0.48    0.00    0.03
  10                   CONDUIT    262.92   259  03:01      1.58    0.00    0.04
  11                   CONDUIT    537.58   259  03:08      0.08    0.00    0.52
  12                   CONDUIT    465.76   262  21:00      0.07    0.00    0.52
  13                   CONDUIT   3299.25     2  14:07      4.31    0.05    0.81
  14                   CONDUIT  17312.77   262  20:11    >50.00    0.00    0.57
  15                   CONDUIT   7680.17   262  22:04      1.23   25.33    0.54
  16                   CONDUIT    475.28   262  21:00     27.88    0.00    0.04
  17                   CONDUIT      1.38   262  20:11      0.03    0.00    0.02
  18                   CONDUIT  12487.59   262  21:00      3.28   20.28    0.34
  19                   CONDUIT   4045.73   259  03:00      6.12    0.00    0.23
  20                   CONDUIT      0.10   259  03:00      0.00    0.00    0.45
  21                   CONDUIT  12454.25   262  21:00      5.12    0.12    0.25
  22                   CONDUIT  13631.48   262  21:02      4.26    0.17    0.64
  23                   CONDUIT    851.72   262  21:04      1.08    1.10    1.00
  24                   CONDUIT  15005.23   262  21:02      2.05    0.19    1.00
  25                   CONDUIT    496.03   262  21:01      0.07    0.00    0.52
  26                   CONDUIT    104.46   262  19:01      0.15    0.00    1.00
  27                   CONDUIT   1367.47   312  02:19      1.74    1.78    1.00
  28                   CONDUIT   1884.01   227  14:56      2.40  331.97    1.00
  29                   CONDUIT   6059.27   227  18:18      7.71    3.19    1.00
  30                   CONDUIT   1902.36   262  21:00      2.56    2.97    0.90
  31                   CONDUIT   1382.78   259  08:00      2.11    0.60    0.78
  
  
  ***************************
  Flow Classification Summary
  ***************************
  
  -------------------------------------------------------------------------------------
                      Adjusted    ---------- Fraction of Time in Flow Class ---------- 
                       /Actual         Up    Down  Sub   Sup   Up    Down  Norm  Inlet 
  Conduit               Length    Dry  Dry   Dry   Crit  Crit  Crit  Crit  Ltd   Ctrl  
  -------------------------------------------------------------------------------------
  0                       1.00   1.00  0.00  0.00  0.00  0.00  0.00  0.00  0.00  0.00
  1                       1.00   0.00  1.00  0.00  0.00  0.00  0.00  0.00  0.00  0.00
  2                       1.00   1.00  0.00  0.00  0.00  0.00  0.00  0.00  0.00  0.00
  3                       1.00   1.00  0.00  0.00  0.00  0.00  0.00  0.00  0.00  0.00
  4                       1.00   0.00  1.00  0.00  0.00  0.00  0.00  0.00  0.00  0.00
  5                       1.00   0.00  0.00  0.00  1.00  0.00  0.00  0.00  0.99  0.00
  6                       1.00   1.00  0.00  0.00  0.00  0.00  0.00  0.00  0.00  0.00
  7                       1.00   1.00  0.00  0.00  0.00  0.00  0.00  0.00  0.00  0.00
  8                       1.00   1.00  0.00  0.00  0.00  0.00  0.00  0.00  0.00  0.00
  9                       1.00   0.00  0.02  0.00  0.98  0.00  0.00  0.00  0.99  0.00
  10                      1.00   0.00  0.01  0.00  0.53  0.46  0.00  0.00  0.99  0.00
  11                      1.00   0.00  0.00  0.00  1.00  0.00  0.00  0.00  0.99  0.00
  12                      1.00   0.00  0.00  0.00  0.99  0.00  0.00  0.00  0.99  0.00
  13                      1.00   0.00  0.00  0.00  1.00  0.00  0.00  0.00  0.00  0.00
  14                      1.00   0.00  0.94  0.00  0.05  0.00  0.00  0.00  0.90  0.00
  15                      1.00   0.00  0.00  0.00  1.00  0.00  0.00  0.00  0.00  0.00
  16                      1.00   0.08  0.05  0.00  0.03  0.84  0.00  0.00  0.00  0.00
  17                      1.00   0.76  0.00  0.00  0.21  0.03  0.00  0.00  0.15  0.00
  18                      1.00   0.00  0.00  0.00  1.00  0.00  0.00  0.00  0.00  0.00
  19                      1.00   0.00  0.60  0.00  0.40  0.00  0.00  0.00  0.99  0.00
  20                      1.00   0.00  0.66  0.00  0.34  0.00  0.00  0.00  0.99  0.00
  21                      1.00   0.00  0.00  0.00  0.00  1.00  0.00  0.00  0.99  0.00
  22                      1.00   0.00  0.00  0.00  0.02  0.97  0.00  0.00  0.94  0.00
  23                      1.00   0.00  0.00  0.00  1.00  0.00  0.00  0.00  0.01  0.00
  24                      1.00   0.00  0.00  0.00  1.00  0.00  0.00  0.00  0.98  0.00
  25                      1.00   0.00  0.00  0.00  1.00  0.00  0.00  0.00  0.99  0.00
  26                      1.00   0.00  1.00  0.00  0.00  0.00  0.00  0.00  0.00  0.00
  27                      1.00   0.00  0.00  0.00  1.00  0.00  0.00  0.00  0.56  0.00
  28                      1.00   0.00  0.00  0.00  1.00  0.00  0.00  0.00  0.00  0.00
  29                      1.00   0.00  0.65  0.00  0.34  0.00  0.00  0.00  0.56  0.00
  30                      1.00   0.00  0.00  0.00  1.00  0.00  0.00  0.00  0.00  0.00
  31                      1.00   0.00  0.00  0.00  1.00  0.00  0.00  0.00  0.00  0.00
  
  
  *************************
  Conduit Surcharge Summary
  *************************
  
  ----------------------------------------------------------------------------
                                                           Hours        Hours 
                         --------- Hours Full --------   Above Full   Capacity
  Conduit                Both Ends  Upstream  Dnstream   Normal Flow   Limited
  ----------------------------------------------------------------------------
  5                           0.01      0.01     32.28      0.01         0.01
  11                          0.01      0.01   7881.97      0.01         0.01
  12                          0.01      0.01   7860.96      0.01         0.01
  13                          0.01      0.01   7881.97      0.01         0.01
  14                          0.01      0.01   1997.05      0.01         0.01
  15                          0.01      0.01      0.01   3672.09         0.01
  18                          0.01      0.01      0.01   2662.90         0.01
  22                          0.01      0.01     32.28      0.01         0.01
  23                          3.30      3.30   7871.38      1.26         0.01
  24                         32.28     32.28   2388.11      0.01         0.01
  25                          0.01      0.01   7841.99      0.01         0.01
  26                          3.80      3.80   1637.11      0.01         0.01
  27                       3319.90   3319.90   7880.43   1841.52      1992.87
  28                       2479.92   3319.90   2479.92   7450.09      2479.92
  29                        485.42    485.42   6971.64   1164.22         0.01
  30                          0.01   2479.77      0.01   2230.17         0.01
  31                          0.01      0.01   7880.38      0.01         0.01
  

  Analysis begun on:  Wed Apr 15 04:01:20 2020
  Analysis ended on:  Wed Apr 15 04:04:38 2020
  Total elapsed time: 00:03:18