
  EPA STORM WATER MANAGEMENT MODEL - VERSION 5.1 (Build 5.1.013)
  --------------------------------------------------------------

  Template input file for Gottesacker karst system.  
  Based on input files created by Zhao Chen. 
  Modified by Chloe Fandel: 
  
  WARNING 08: elevation drop exceeds length for Conduit 2
  WARNING 04: minimum elevation drop used for Conduit 11
  WARNING 04: minimum elevation drop used for Conduit 14
  WARNING 04: minimum elevation drop used for Conduit 16
  WARNING 04: minimum elevation drop used for Conduit 21
  WARNING 04: minimum elevation drop used for Conduit 22
  WARNING 04: minimum elevation drop used for Conduit 25
  
  *********************************************************
  NOTE: The summary statistics displayed in this report are
  based on results found at every computational time step,  
  not just on results from each reporting time step.
  *********************************************************
  
  ****************
  Analysis Options
  ****************
  Flow Units ............... LPS
  Process Models:
    Rainfall/Runoff ........ YES
    RDII ................... NO
    Snowmelt ............... NO
    Groundwater ............ NO
    Flow Routing ........... YES
    Ponding Allowed ........ NO
    Water Quality .......... NO
  Infiltration Method ...... HORTON
  Flow Routing Method ...... DYNWAVE
  Surcharge Method ......... EXTRAN
  Starting Date ............ 11/14/2013 00:00:00
  Ending Date .............. 10/11/2014 00:00:00
  Antecedent Dry Days ...... 0.0
  Report Time Step ......... 01:00:00
  Wet Time Step ............ 00:30:00
  Dry Time Step ............ 01:00:00
  Routing Time Step ........ 30.00 sec
  Variable Time Step ....... YES
  Maximum Trials ........... 8
  Number of Threads ........ 4
  Head Tolerance ........... 0.001524 m
  
  
  **************************        Volume         Depth
  Runoff Quantity Continuity     hectare-m            mm
  **************************     ---------       -------
  Total Precipitation ......      2497.974       770.861
  Evaporation Loss .........         0.000         0.000
  Infiltration Loss ........         0.000         0.000
  Surface Runoff ...........      2494.863       769.901
  Final Storage ............         3.481         1.074
  Continuity Error (%) .....        -0.015
  
  
  **************************        Volume        Volume
  Flow Routing Continuity        hectare-m      10^6 ltr
  **************************     ---------     ---------
  Dry Weather Inflow .......         0.000         0.000
  Wet Weather Inflow .......      2494.827     24948.533
  Groundwater Inflow .......         0.000         0.000
  RDII Inflow ..............         0.000         0.000
  External Inflow ..........         6.798        67.982
  External Outflow .........      4123.573     41236.155
  Flooding Loss ............         0.000         0.000
  Evaporation Loss .........         0.000         0.000
  Exfiltration Loss ........         0.000         0.000
  Initial Stored Volume ....         0.000         0.000
  Final Stored Volume ......         3.206        32.065
  Continuity Error (%) .....       -64.964
  
  
  *************************
  Highest Continuity Errors
  *************************
  Node 5 (-70.59%)
  Node 8 (-45.78%)
  Node 25 (16.69%)
  Node 21 (1.69%)
  Node 23 (-1.69%)
  
  
  ***************************
  Time-Step Critical Elements
  ***************************
  Link 29 (72.57%)
  
  
  ********************************
  Highest Flow Instability Indexes
  ********************************
  Link 11 (94)
  Link 12 (88)
  Link 6 (74)
  Link 21 (67)
  Link 7 (66)
  
  
  *************************
  Routing Time Step Summary
  *************************
  Minimum Time Step           :     0.53 sec
  Average Time Step           :    15.17 sec
  Maximum Time Step           :    30.00 sec
  Percent in Steady State     :     0.30
  Average Iterations per Step :     6.59
  Percent Not Converging      :    74.54
  
  
  ***************************
  Subcatchment Runoff Summary
  ***************************
  
  ------------------------------------------------------------------------------------------------------------------------------
                            Total      Total      Total      Total     Imperv       Perv      Total       Total     Peak  Runoff
                           Precip      Runon       Evap      Infil     Runoff     Runoff     Runoff      Runoff   Runoff   Coeff
  Subcatchment                 mm         mm         mm         mm         mm         mm         mm    10^6 ltr      LPS
  ------------------------------------------------------------------------------------------------------------------------------
  S1                         0.00       0.00       0.00       0.00       0.00       0.00       0.00        0.00     0.00   0.000
  S2                         0.00       0.00       0.00       0.00       0.00       0.00       0.00        0.00     0.00   0.000
  S3                         0.00       0.00       0.00       0.00       0.00       0.00       0.00        0.00     0.00   0.000
  S4                         0.00       0.00       0.00       0.00       0.00       0.00       0.00        0.00     0.00   0.000
  S5                      1061.54       0.00       0.00       0.00    1061.69       0.00    1061.69      368.94   262.37   1.000
  S6                      1029.54       0.00       0.00       0.00    1030.00       0.00    1030.00      105.58    87.48   1.000
  S7                      1024.61       0.00       0.00       0.00    1024.82       0.00    1024.82      266.45   198.54   1.000
  S8                      1385.10       0.00       0.00       0.00    1385.52       0.00    1385.52      498.79   466.98   1.000
  S9                      1036.22       0.00       0.00       0.00    1036.14       0.00    1036.14      841.87   614.86   1.000
  S10                     1318.99       0.00       0.00       0.00    1319.66       0.00    1319.66      240.84   252.07   1.001
  S11                     1002.92       0.00       0.00       0.00    1003.18       0.00    1003.18      258.32   258.68   1.000
  S12                      969.60       0.00       0.00       0.00     970.18       0.00     970.18       89.74    98.03   1.001
  S13                      952.56       0.00       0.00       0.00     953.11       0.00     953.11       90.55   104.58   1.001
  S14                     1574.01       0.00       0.00       0.00    1574.39       0.00    1574.39      625.82   478.24   1.000
  S15                        0.00       0.00       0.00       0.00       0.00       0.00       0.00        0.00     0.00   0.000
  S16                     1292.86       0.00       0.00       0.00    1293.18       0.00    1293.18      484.95   498.34   1.000
  S17                      977.59       0.00       0.00       0.00     978.11       0.00     978.11       95.37    91.14   1.001
  S18                     1145.64       0.00       0.00       0.00    1145.06       0.00    1145.06     2693.76  1356.74   0.999
  S19                      770.39       0.00       0.00       0.00     770.36       0.00     770.36      381.33   362.19   1.000
  S20                        0.00       0.00       0.00       0.00       0.00       0.00       0.00        0.00     0.00   0.000
  S21                      783.34       0.00       0.00       0.00     781.61       0.00     781.61    10971.92  4135.80   0.998
  S22                     1364.67       0.00       0.00       0.00    1365.98       0.00    1365.98      102.45   112.96   1.001
  S23                     1201.34       0.00       0.00       0.00    1200.30       0.00    1200.30     6586.67  3019.41   0.999
  S24                     1369.60       0.00       0.00       0.00    1371.06       0.00    1371.06       82.26    92.06   1.001
  S25                     1356.04       0.00       0.00       0.00    1358.31       0.00    1358.31       30.56    37.33   1.002
  S26                       22.11       0.00       0.00       0.00      21.88       0.00      21.88       81.55    15.50   0.989
  S27                     1359.91       0.00       0.00       0.00    1361.72       0.00    1361.72       51.06    60.01   1.001
  S28                        0.00       0.00       0.00       0.00       0.00       0.00       0.00        0.00     0.00   0.000
  S29                        0.00       0.00       0.00       0.00       0.00       0.00       0.00        0.00     0.00   0.000
  
  
  ******************
  Node Depth Summary
  ******************
  
  ---------------------------------------------------------------------------------
                                 Average  Maximum  Maximum  Time of Max    Reported
                                   Depth    Depth      HGL   Occurrence   Max Depth
  Node                 Type       Meters   Meters   Meters  days hr:min      Meters
  ---------------------------------------------------------------------------------
  0                    JUNCTION     0.00     0.00  1872.50     0  00:00        0.00
  1                    JUNCTION     0.00     0.00  1680.00     0  00:00        0.00
  2                    JUNCTION     0.00     0.00  1762.50     0  00:00        0.00
  3                    JUNCTION     0.00     0.00  1432.50     0  00:00        0.00
  4                    JUNCTION     0.03     0.14  1955.14   259  03:03        0.14
  5                    JUNCTION     0.23     0.79  1818.29   221  17:08        0.73
  6                    JUNCTION     0.00     0.03  1927.53   259  03:00        0.03
  7                    JUNCTION     0.04     0.19  1762.69   262  21:01        0.19
  8                    JUNCTION     0.93     3.20  1628.20   262  21:01        3.19
  9                    JUNCTION     0.00     0.02  1707.52   262  19:00        0.02
  10                   JUNCTION     0.89     3.02  1628.02   262  21:03        3.02
  11                   JUNCTION     0.01     0.08  1652.58   262  21:01        0.08
  12                   JUNCTION     0.81     2.65  1627.65   262  21:04        2.64
  13                   JUNCTION     0.05     0.20  1350.20   259  03:18        0.20
  14                   JUNCTION     0.25     1.08  1626.08   262  21:06        1.08
  15                   JUNCTION     0.03     0.18  1680.18   262  21:00        0.18
  16                   JUNCTION     0.26     0.79  1598.29   221  17:08        0.78
  17                   JUNCTION     0.33     0.98  1268.48   239  06:19        0.97
  18                   JUNCTION     0.05     0.26  1515.26   262  21:06        0.26
  19                   JUNCTION     0.00     0.00  1570.00     0  00:00        0.00
  20                   JUNCTION    27.74    31.66  1079.16   237  07:00       31.66
  21                   JUNCTION    27.74    31.61  1079.11   237  07:00       31.60
  22                   JUNCTION     0.57     1.77  1076.77   237  07:03        1.77
  23                   JUNCTION    27.74    31.63  1079.13   237  07:01       31.63
  24                   JUNCTION     0.00     0.03  1102.53   259  03:00        0.03
  25                   JUNCTION    14.86    17.07  1037.07   237  07:03       17.07
  26                   OUTFALL      0.00     0.00  1120.00     0  00:00        0.00
  27                   OUTFALL      0.00     0.00  1080.00     0  00:00        0.00
  28                   OUTFALL      0.29     0.96  1035.96   237  07:03        0.96
  
  
  *******************
  Node Inflow Summary
  *******************
  
  -------------------------------------------------------------------------------------------------
                                  Maximum  Maximum                  Lateral       Total        Flow
                                  Lateral    Total  Time of Max      Inflow      Inflow     Balance
                                   Inflow   Inflow   Occurrence      Volume      Volume       Error
  Node                 Type           LPS      LPS  days hr:min    10^6 ltr    10^6 ltr     Percent
  -------------------------------------------------------------------------------------------------
  0                    JUNCTION      0.00     0.00     0  00:00           0           0       0.000 ltr
  1                    JUNCTION      0.00     0.00     0  00:00           0           0       0.000 ltr
  2                    JUNCTION      0.00     0.00     0  00:00           0           0       0.000 ltr
  3                    JUNCTION      0.00     0.00     0  00:00           0           0       0.000 ltr
  4                    JUNCTION    263.34   263.34   259  03:00         371         371       0.022
  5                    JUNCTION     88.54 18934.39   221  17:07         108    9.35e+03     -41.380
  6                    JUNCTION    199.49   199.49   259  03:00         268         268       0.000
  7                    JUNCTION    467.05   467.05   262  21:00         499         499       0.009
  8                    JUNCTION    615.26 15384.49   221  17:07         843    7.55e+03     -31.404
  9                    JUNCTION    252.18   252.18   262  21:00         241         241       0.000
  10                   JUNCTION    259.20  7520.88   262  21:00         260    1.13e+04      -0.040
  11                   JUNCTION     98.50    98.50   262  21:00        91.6        91.6      -0.060
  12                   JUNCTION    105.11  7587.06   262  21:02        92.5    1.14e+04       0.000
  13                   JUNCTION    478.24   478.24   259  03:00         626         626       0.011
  14                   JUNCTION      0.00  7620.28   262  21:04           0    1.15e+04       0.004
  15                   JUNCTION    498.34   498.34   262  21:00         485         485      -0.017
  16                   JUNCTION     91.63 11687.52   221  17:08        97.3    2.75e+04      -0.047
  17                   JUNCTION   1357.43 11653.75   239  06:13     2.7e+03    3.08e+04       0.002
  18                   JUNCTION    362.19   858.72   262  21:00         381         866       0.005
  19                   JUNCTION      0.00     0.00     0  00:00           0           0       0.000 ltr
  20                   JUNCTION   4135.82 42178.06     3  19:44     1.1e+04    4.19e+04      -0.635
  21                   JUNCTION    112.96 32238.03     3  19:51         102    4.26e+04       1.724
  22                   JUNCTION   3019.48 18349.19   237  07:00    6.59e+03    4.93e+04       0.002
  23                   JUNCTION     92.06 56811.04     3  19:44        82.3    1.66e+04      -1.661
  24                   JUNCTION     37.33    37.33   259  03:00        30.6        30.6       0.000
  25                   JUNCTION     15.50 18334.97   237  07:03        81.5    4.94e+04      20.031
  26                   OUTFALL      60.01    60.01   259  03:00        51.1        51.1       0.000
  27                   OUTFALL       0.00     0.00     0  00:00           0           0       0.000 ltr
  28                   OUTFALL       0.00 18334.97   237  07:03           0    4.12e+04       0.000
  
  
  **********************
  Node Surcharge Summary
  **********************
  
  Surcharging occurs when water rises above the top of the highest conduit.
  ---------------------------------------------------------------------
                                               Max. Height   Min. Depth
                                   Hours       Above Crown    Below Rim
  Node                 Type      Surcharged         Meters       Meters
  ---------------------------------------------------------------------
  20                   JUNCTION     7852.16         27.664        0.000
  21                   JUNCTION     7852.19         27.606        0.000
  23                   JUNCTION     7852.21         27.627        0.000
  25                   JUNCTION     7406.50         13.071        0.000
  
  
  *********************
  Node Flooding Summary
  *********************
  
  No nodes were flooded.
  
  
  ***********************
  Outfall Loading Summary
  ***********************
  
  -----------------------------------------------------------
                         Flow       Avg       Max       Total
                         Freq      Flow      Flow      Volume
  Outfall Node           Pcnt       LPS       LPS    10^6 ltr
  -----------------------------------------------------------
  26                    85.21      3.49     60.01      51.060
  27                     0.00      0.00      0.00       0.000
  28                    96.54   2546.83  18334.97   41234.644
  -----------------------------------------------------------
  System                60.58   2550.32  18334.97   41285.705
  
  
  ********************
  Link Flow Summary
  ********************
  
  -----------------------------------------------------------------------------
                                 Maximum  Time of Max   Maximum    Max/    Max/
                                  |Flow|   Occurrence   |Veloc|    Full    Full
  Link                 Type          LPS  days hr:min     m/sec    Flow   Depth
  -----------------------------------------------------------------------------
  0                    CONDUIT      0.00     0  00:00      0.00    0.00    0.00
  1                    CONDUIT      0.00     0  00:00      0.00    0.00    0.03
  2                    CONDUIT      0.00     0  00:00      0.00    0.00    0.00
  3                    CONDUIT      0.00     0  00:00      0.00    0.00    0.03
  4                    CONDUIT    461.22   259  03:18      0.45    0.01    0.15
  5                    CONDUIT    262.22   259  03:03      0.78    0.00    0.11
  6                    CONDUIT   7810.85   221  17:08      4.49    0.09    0.20
  7                    CONDUIT  18854.73   221  17:07     31.13    0.00    0.10
  8                    CONDUIT   7610.67   262  21:07      3.55    0.15    0.23
  9                    CONDUIT  10611.24   221  17:08      5.53    0.09    0.22
  10                   CONDUIT    464.31   262  21:01      0.09    0.00    0.43
  11                   CONDUIT   7213.29   262  21:00      0.70   24.77    0.78
  12                   CONDUIT  15214.86   221  17:07      6.17    0.00    0.40
  13                   CONDUIT     49.01   262  21:01      0.01    0.00    0.39
  14                   CONDUIT   7483.29   262  21:02      0.79   30.75    0.71
  15                   CONDUIT     49.01   262  21:01      0.06    0.00    0.15
  16                   CONDUIT   7571.56   262  21:04      1.32   31.12    0.47
  17                   CONDUIT  11642.82   239  06:19      1.42    0.14    0.62
  18                   CONDUIT    496.90   262  21:00      1.83    0.00    0.06
  19                   CONDUIT    844.13   262  21:06      0.47    0.01    0.25
  20                   CONDUIT      0.00     0  00:00      0.00    0.00    0.03
  21                   CONDUIT  32237.41     3  19:51      2.57   52.36    1.00
  22                   CONDUIT  27899.92     3  19:44      2.34   53.88    1.00
  23                   CONDUIT  14853.35   237  07:00      1.53    0.25    0.72
  24                   CONDUIT  18319.96   237  07:03      1.89    0.42    0.72
  25                   CONDUIT  30849.77     3  19:44      2.90   50.10    1.00
  26                   CONDUIT     37.25   259  03:00      0.01    0.00    0.50
  27                   CONDUIT      0.00     0  00:00      0.00    0.00    0.50
  28                   CONDUIT      0.00     0  00:00      0.00    0.00    0.50
  29                   CONDUIT  18334.97   237  07:03      2.56    0.13    0.62
  
  
  ***************************
  Flow Classification Summary
  ***************************
  
  -------------------------------------------------------------------------------------
                      Adjusted    ---------- Fraction of Time in Flow Class ---------- 
                       /Actual         Up    Down  Sub   Sup   Up    Down  Norm  Inlet 
  Conduit               Length    Dry  Dry   Dry   Crit  Crit  Crit  Crit  Ltd   Ctrl  
  -------------------------------------------------------------------------------------
  0                       1.00   1.00  0.00  0.00  0.00  0.00  0.00  0.00  0.00  0.00
  1                       1.00   0.00  1.00  0.00  0.00  0.00  0.00  0.00  0.00  0.00
  2                       1.00   1.00  0.00  0.00  0.00  0.00  0.00  0.00  0.00  0.00
  3                       1.00   0.00  1.00  0.00  0.00  0.00  0.00  0.00  0.00  0.00
  4                       1.00   0.00  0.00  0.00  1.00  0.00  0.00  0.00  0.99  0.00
  5                       1.00   0.00  0.00  0.00  1.00  0.00  0.00  0.00  0.99  0.00
  6                       1.00   0.00  0.00  0.00  0.02  0.98  0.00  0.00  0.80  0.00
  7                       1.00   0.00  0.75  0.00  0.25  0.00  0.00  0.00  0.94  0.00
  8                       1.00   0.00  0.00  0.00  0.67  0.33  0.00  0.00  0.69  0.00
  9                       1.00   0.00  0.00  0.00  0.00  1.00  0.00  0.00  0.99  0.00
  10                      1.00   0.00  0.00  0.00  0.99  0.00  0.00  0.00  0.99  0.00
  11                      1.00   0.00  0.00  0.00  1.00  0.00  0.00  0.00  0.00  0.00
  12                      1.00   0.00  0.68  0.00  0.32  0.00  0.00  0.00  0.99  0.00
  13                      1.00   0.00  0.01  0.00  0.99  0.00  0.00  0.00  0.99  0.00
  14                      1.00   0.00  0.00  0.00  1.00  0.00  0.00  0.00  0.00  0.00
  15                      1.00   0.00  0.01  0.00  0.99  0.00  0.00  0.00  0.99  0.00
  16                      1.00   0.00  0.00  0.00  1.00  0.00  0.00  0.00  0.00  0.00
  17                      1.00   0.00  0.00  0.00  1.00  0.00  0.00  0.00  0.99  0.00
  18                      1.00   0.00  0.00  0.00  0.56  0.43  0.00  0.00  0.99  0.00
  19                      1.00   0.00  0.00  0.00  1.00  0.00  0.00  0.00  0.99  0.00
  20                      1.00   0.00  1.00  0.00  0.00  0.00  0.00  0.00  0.00  0.00
  21                      1.00   0.00  0.00  0.00  1.00  0.00  0.00  0.00  0.00  0.00
  22                      1.00   0.00  0.00  0.00  1.00  0.00  0.00  0.00  0.00  0.00
  23                      1.00   0.00  0.00  0.00  1.00  0.00  0.00  0.00  0.06  0.00
  24                      1.00   0.00  0.00  0.00  1.00  0.00  0.00  0.00  0.99  0.00
  25                      1.00   0.00  0.00  0.00  1.00  0.00  0.00  0.00  0.00  0.00
  26                      1.00   0.00  0.08  0.00  0.92  0.00  0.00  0.00  0.98  0.00
  27                      1.00   0.00  1.00  0.00  0.00  0.00  0.00  0.00  0.00  0.00
  28                      1.00   0.00  1.00  0.00  0.00  0.00  0.00  0.00  0.00  0.00
  29                      1.00   0.00  0.03  0.00  0.97  0.00  0.00  0.00  0.46  0.00
  
  
  *************************
  Conduit Surcharge Summary
  *************************
  
  ----------------------------------------------------------------------------
                                                           Hours        Hours 
                         --------- Hours Full --------   Above Full   Capacity
  Conduit                Both Ends  Upstream  Dnstream   Normal Flow   Limited
  ----------------------------------------------------------------------------
  11                          0.01      0.01      0.01   3157.52         0.01
  14                          0.01      0.01      0.01   3439.09         0.01
  16                          0.01      0.01      0.01   3443.91         0.01
  17                          0.01      0.01   7852.16      0.01         0.01
  21                       7852.15   7852.16   7852.18   3544.40      3340.67
  22                       7852.15   7852.16   7852.19   2969.78      3198.86
  23                          0.01      0.01   7852.18      0.01         0.01
  24                          0.01      0.01   7406.50      0.01         0.01
  25                       7852.15   7852.18   7852.19   2559.49      3616.43
  26                          0.01      0.01   7813.14      0.01         0.01
  29                          0.01      0.01   7403.14      0.01         0.01
  

  Analysis begun on:  Tue Apr 14 17:21:06 2020
  Analysis ended on:  Tue Apr 14 17:23:52 2020
  Total elapsed time: 00:02:46