
  EPA STORM WATER MANAGEMENT MODEL - VERSION 5.1 (Build 5.1.013)
  --------------------------------------------------------------

  Template input file for Gottesacker karst system.  
  Based on input files created by Zhao Chen. 
  Modified by Chloe Fandel: 
  
  WARNING 08: elevation drop exceeds length for Conduit 2
  WARNING 04: minimum elevation drop used for Conduit 3
  WARNING 04: minimum elevation drop used for Conduit 6
  WARNING 08: elevation drop exceeds length for Conduit 7
  WARNING 08: elevation drop exceeds length for Conduit 8
  WARNING 04: minimum elevation drop used for Conduit 15
  WARNING 04: minimum elevation drop used for Conduit 17
  WARNING 04: minimum elevation drop used for Conduit 18
  WARNING 04: minimum elevation drop used for Conduit 28
  
  *********************************************************
  NOTE: The summary statistics displayed in this report are
  based on results found at every computational time step,  
  not just on results from each reporting time step.
  *********************************************************
  
  ****************
  Analysis Options
  ****************
  Flow Units ............... LPS
  Process Models:
    Rainfall/Runoff ........ YES
    RDII ................... NO
    Snowmelt ............... NO
    Groundwater ............ NO
    Flow Routing ........... YES
    Ponding Allowed ........ NO
    Water Quality .......... NO
  Infiltration Method ...... HORTON
  Flow Routing Method ...... DYNWAVE
  Surcharge Method ......... EXTRAN
  Starting Date ............ 11/14/2013 00:00:00
  Ending Date .............. 10/11/2014 00:00:00
  Antecedent Dry Days ...... 0.0
  Report Time Step ......... 01:00:00
  Wet Time Step ............ 00:30:00
  Dry Time Step ............ 01:00:00
  Routing Time Step ........ 30.00 sec
  Variable Time Step ....... YES
  Maximum Trials ........... 8
  Number of Threads ........ 4
  Head Tolerance ........... 0.001524 m
  
  
  **************************        Volume         Depth
  Runoff Quantity Continuity     hectare-m            mm
  **************************     ---------       -------
  Total Precipitation ......      1876.070       691.193
  Evaporation Loss .........         0.000         0.000
  Infiltration Loss ........         0.000         0.000
  Surface Runoff ...........      1873.345       690.189
  Final Storage ............         3.029         1.116
  Continuity Error (%) .....        -0.016
  
  
  **************************        Volume        Volume
  Flow Routing Continuity        hectare-m      10^6 ltr
  **************************     ---------     ---------
  Dry Weather Inflow .......         0.000         0.000
  Wet Weather Inflow .......      1873.365     18733.846
  Groundwater Inflow .......         0.000         0.000
  RDII Inflow ..............         0.000         0.000
  External Inflow ..........         1.698        16.983
  External Outflow .........      6445.216     64452.828
  Flooding Loss ............         0.000         0.000
  Evaporation Loss .........         0.000         0.000
  Exfiltration Loss ........         0.000         0.000
  Initial Stored Volume ....         0.000         0.000
  Final Stored Volume ......         4.279        42.791
  Continuity Error (%) .....      -243.961
  
  
  *************************
  Highest Continuity Errors
  *************************
  Node 14 (-2606.21%)
  Node 16 (-2284.87%)
  Node 13 (-119.09%)
  Node 11 (-20.79%)
  Node 22 (2.04%)
  
  
  ***************************
  Time-Step Critical Elements
  ***************************
  Link 31 (85.25%)
  Link 18 (14.47%)
  
  
  ********************************
  Highest Flow Instability Indexes
  ********************************
  Link 13 (115)
  Link 18 (111)
  Link 15 (110)
  Link 19 (100)
  Link 16 (71)
  
  
  *************************
  Routing Time Step Summary
  *************************
  Minimum Time Step           :     0.50 sec
  Average Time Step           :    10.20 sec
  Maximum Time Step           :    30.00 sec
  Percent in Steady State     :     0.30
  Average Iterations per Step :     7.19
  Percent Not Converging      :    84.38
  
  
  ***************************
  Subcatchment Runoff Summary
  ***************************
  
  ------------------------------------------------------------------------------------------------------------------------------
                            Total      Total      Total      Total     Imperv       Perv      Total       Total     Peak  Runoff
                           Precip      Runon       Evap      Infil     Runoff     Runoff     Runoff      Runoff   Runoff   Coeff
  Subcatchment                 mm         mm         mm         mm         mm         mm         mm    10^6 ltr      LPS
  ------------------------------------------------------------------------------------------------------------------------------
  S1                         0.00       0.00       0.00       0.00       0.00       0.00       0.00        0.00     0.00   0.000
  S2                         0.00       0.00       0.00       0.00       0.00       0.00       0.00        0.00     0.00   0.000
  S4                         0.00       0.00       0.00       0.00       0.00       0.00       0.00        0.00     0.00   0.000
  S7                         0.00       0.00       0.00       0.00       0.00       0.00       0.00        0.00     0.00   0.000
  S8                      1031.42       0.00       0.00       0.00    1032.06       0.00    1032.06       64.50    55.73   1.001
  S9                      1025.22       0.00       0.00       0.00    1025.31       0.00    1025.31      371.68   262.35   1.000
  S10                     1385.10       0.00       0.00       0.00    1385.52       0.00    1385.52      498.79   466.98   1.000
  S11                     1067.22       0.00       0.00       0.00    1067.43       0.00    1067.43      304.22   223.10   1.000
  S12                      986.20       0.00       0.00       0.00     986.34       0.00     986.34      367.42   312.39   1.000
  S13                     1095.88       0.00       0.00       0.00    1096.03       0.00    1096.03      482.26   414.04   1.000
  S14                      977.89       0.00       0.00       0.00     978.35       0.00     978.35      134.52   153.20   1.000
  S15                     1323.24       0.00       0.00       0.00    1324.30       0.00    1324.30      115.88   125.53   1.001
  S16                     1001.87       0.00       0.00       0.00    1002.10       0.00    1002.10      283.10   278.35   1.000
  S17                     1351.68       0.00       0.00       0.00    1352.75       0.00    1352.75      121.75   137.41   1.001
  S18                      973.25       0.00       0.00       0.00     974.33       0.00     974.33       29.23    35.76   1.001
  S19                     1574.01       0.00       0.00       0.00    1574.39       0.00    1574.39      625.82   478.24   1.000
  S20                     1292.86       0.00       0.00       0.00    1293.18       0.00    1293.18      484.95   498.34   1.000
  S21                     1129.79       0.00       0.00       0.00    1130.01       0.00    1130.01      449.18   373.16   1.000
  S22                     1148.78       0.00       0.00       0.00    1148.42       0.00    1148.42     1714.03  1002.50   1.000
  S23                      770.39       0.00       0.00       0.00     770.36       0.00     770.36      381.33   362.19   1.000
  S24                        0.00       0.00       0.00       0.00       0.00       0.00       0.00        0.00     0.00   0.000
  S25                      809.29       0.00       0.00       0.00     807.48       0.00     807.48    12090.03  4540.50   0.998
  S26                     1369.60       0.00       0.00       0.00    1371.06       0.00    1371.06       82.26    92.06   1.001
  S27                       22.11       0.00       0.00       0.00      21.88       0.00      21.88       81.55    15.50   0.989
  S28                     1359.91       0.00       0.00       0.00    1361.72       0.00    1361.72       51.06    60.01   1.001
  S29                        0.00       0.00       0.00       0.00       0.00       0.00       0.00        0.00     0.00   0.000
  S30                        0.00       0.00       0.00       0.00       0.00       0.00       0.00        0.00     0.00   0.000
  
  
  ******************
  Node Depth Summary
  ******************
  
  ---------------------------------------------------------------------------------
                                 Average  Maximum  Maximum  Time of Max    Reported
                                   Depth    Depth      HGL   Occurrence   Max Depth
  Node                 Type       Meters   Meters   Meters  days hr:min      Meters
  ---------------------------------------------------------------------------------
  0                    JUNCTION     0.00     0.00  1872.50     0  00:00        0.00
  1                    JUNCTION     0.00     0.00  1707.50     0  00:00        0.00
  2                    JUNCTION     0.00     0.00  1735.00     0  00:00        0.00
  3                    JUNCTION     0.00     0.00  1707.50     0  00:00        0.00
  4                    JUNCTION     0.00     0.00  1735.00     0  00:00        0.00
  5                    JUNCTION     0.00     0.00  1762.50     0  00:00        0.00
  6                    JUNCTION     0.00     0.00  1432.50     0  00:00        0.00
  7                    JUNCTION     0.01     0.07  1955.07   259  03:03        0.07
  8                    JUNCTION     0.02     0.12  1927.62   259  03:01        0.12
  9                    JUNCTION     0.02     0.16  1762.66   262  21:00        0.16
  10                   JUNCTION     0.03     0.20  1790.20   259  03:08        0.20
  11                   JUNCTION    28.58    44.64  1669.64   259  02:53       38.64
  12                   JUNCTION     0.03     0.18  1707.68   262  21:00        0.18
  13                   JUNCTION     1.15    14.73  1667.23   259  02:53        9.54
  14                   JUNCTION     0.01     0.06  1680.06   259  02:53        0.06
  15                   JUNCTION     0.89     5.70  1658.20   259  02:54        4.39
  16                   JUNCTION     0.00     0.01  1680.01   239  06:00        0.01
  17                   JUNCTION     0.31     1.93  1654.43   262  21:00        1.93
  18                   JUNCTION     0.04     0.22  1350.22   259  03:20        0.22
  19                   JUNCTION     0.03     0.18  1680.18   262  21:01        0.18
  20                   JUNCTION     0.37     2.37  1544.87   262  21:02        2.37
  21                   JUNCTION     0.38     2.45  1297.45   262  21:06        2.45
  22                   JUNCTION    55.15    81.75  1569.25   210  14:30       57.39
  23                   JUNCTION     0.00     0.00  1570.00     0  00:00        0.00
  24                   JUNCTION     0.61    17.98  1120.48   262  21:06       17.98
  25                   JUNCTION     0.28    12.41  1114.91   262  21:06       12.41
  26                   JUNCTION    30.15    99.59  1119.59   262  21:05       99.58
  27                   OUTFALL      0.00     0.43  1120.43   262  21:06        0.43
  28                   OUTFALL      0.20     2.89  1082.89   262  21:06        2.89
  29                   OUTFALL      0.59     1.00  1036.00   124  16:16        1.00
  
  
  *******************
  Node Inflow Summary
  *******************
  
  -------------------------------------------------------------------------------------------------
                                  Maximum  Maximum                  Lateral       Total        Flow
                                  Lateral    Total  Time of Max      Inflow      Inflow     Balance
                                   Inflow   Inflow   Occurrence      Volume      Volume       Error
  Node                 Type           LPS      LPS  days hr:min    10^6 ltr    10^6 ltr     Percent
  -------------------------------------------------------------------------------------------------
  0                    JUNCTION      0.00     0.00     0  00:00           0           0       0.000 ltr
  1                    JUNCTION      0.00     0.00     0  00:00           0           0       0.000 ltr
  2                    JUNCTION      0.00     0.00     0  00:00           0           0       0.000 ltr
  3                    JUNCTION      0.00     0.00     0  00:00           0           0       0.000 ltr
  4                    JUNCTION      0.00     0.00     0  00:00           0           0       0.000 ltr
  5                    JUNCTION      0.00     0.00     0  00:00           0           0       0.000 ltr
  6                    JUNCTION      0.00     0.00     0  00:00           0           0       0.000 ltr
  7                    JUNCTION     56.81    56.81   259  03:00        66.6        66.6      -0.091
  8                    JUNCTION    263.33   263.33   259  03:00         374         374       0.000
  9                    JUNCTION    467.05   467.05   262  21:00         499         499       0.000
  10                   JUNCTION    224.06   542.71   259  03:00         306         746       0.010
  11                   JUNCTION    312.84  2578.51     2  12:29         369    1.63e+03     -17.210
  12                   JUNCTION    414.38   414.38   262  21:00         484         484       0.000
  13                   JUNCTION    153.30 39478.64   227  19:00         135    2.06e+04     -54.357
  14                   JUNCTION    125.63   527.27   262  21:00         116         682     -96.305
  15                   JUNCTION    278.86 64032.99   262  18:58         285    4.82e+04      -0.531
  16                   JUNCTION    137.49   137.49   262  21:00         122         122     -95.807
  17                   JUNCTION     37.29 54467.35   259  02:54          31    4.85e+04      -0.019
  18                   JUNCTION    478.24   478.24   259  03:00         626         626       0.000
  19                   JUNCTION    498.34   498.34   262  21:00         485         485       0.000
  20                   JUNCTION    373.44 54504.47   262  21:00         450    4.98e+04      -0.002
  21                   JUNCTION   1002.84 55830.04   262  21:02    1.72e+03    5.22e+04      -0.001
  22                   JUNCTION    362.19  2110.26   221  15:51         381         886       2.083
  23                   JUNCTION      0.00     0.00     0  00:00           0           0       0.000 ltr
  24                   JUNCTION   4540.53 58366.72   262  21:06    1.21e+04    6.43e+04       0.007
  25                   JUNCTION     92.06 50304.81   262  21:06        82.3    1.96e+04       0.000
  26                   JUNCTION     15.50  5257.68   262  21:05        81.5    4.48e+04       0.037
  27                   OUTFALL      60.01  2932.47   262  21:05        51.1        66.8       0.000
  28                   OUTFALL       0.00 50304.60   262  21:06           0    1.96e+04       0.000
  29                   OUTFALL       0.00  5257.46   262  21:05           0    4.48e+04       0.000
  
  
  **********************
  Node Surcharge Summary
  **********************
  
  Surcharging occurs when water rises above the top of the highest conduit.
  ---------------------------------------------------------------------
                                               Max. Height   Min. Depth
                                   Hours       Above Crown    Below Rim
  Node                 Type      Surcharged         Meters       Meters
  ---------------------------------------------------------------------
  11                   JUNCTION     7883.62         40.636        0.000
  13                   JUNCTION       14.52         10.734        0.000
  15                   JUNCTION        4.24          1.696        0.000
  22                   JUNCTION     7865.96         77.755        0.000
  24                   JUNCTION        6.04         13.984        0.000
  25                   JUNCTION        5.20          8.412        0.000
  26                   JUNCTION     7873.73         95.594        0.000
  
  
  *********************
  Node Flooding Summary
  *********************
  
  No nodes were flooded.
  
  
  ***********************
  Outfall Loading Summary
  ***********************
  
  -----------------------------------------------------------
                         Flow       Avg       Max       Total
                         Freq      Flow      Flow      Volume
  Outfall Node           Pcnt       LPS       LPS    10^6 ltr
  -----------------------------------------------------------
  27                    79.36      4.46   2932.47      66.772
  28                    99.75    840.57  50304.60   19588.538
  29                    99.68   1723.97   5257.46   44797.227
  -----------------------------------------------------------
  System                92.93   2569.00   5257.46   64452.536
  
  
  ********************
  Link Flow Summary
  ********************
  
  -----------------------------------------------------------------------------
                                 Maximum  Time of Max   Maximum    Max/    Max/
                                  |Flow|   Occurrence   |Veloc|    Full    Full
  Link                 Type          LPS  days hr:min     m/sec    Flow   Depth
  -----------------------------------------------------------------------------
  0                    CONDUIT      0.00     0  00:00      0.00    0.00    0.00
  1                    CONDUIT      0.00     0  00:00      0.00    0.00    0.03
  2                    CONDUIT      0.00     0  00:00      0.00    0.00    0.00
  3                    CONDUIT      0.00     0  00:00      0.00    0.00    0.00
  4                    CONDUIT      0.00     0  00:00      0.00    0.00    0.03
  5                    CONDUIT    459.48   259  03:20      0.58    0.01    0.33
  6                    CONDUIT      0.00     0  00:00      0.00    0.00    0.00
  7                    CONDUIT      0.00     0  00:00      0.00    0.00    0.00
  8                    CONDUIT      0.00     0  00:00      0.00    0.00    0.00
  9                    CONDUIT     56.20   259  03:03      0.48    0.00    0.03
  10                   CONDUIT    262.90   259  03:01      1.58    0.00    0.04
  11                   CONDUIT    537.57   259  03:08      0.08    0.00    0.52
  12                   CONDUIT    465.75   262  21:00      0.07    0.00    0.52
  13                   CONDUIT   4072.95   259  02:54      6.23    0.06    1.00
  14                   CONDUIT  38354.66   227  19:00    >50.00    0.00    0.50
  15                   CONDUIT  62606.10   259  02:54      5.07  206.46    1.00
  16                   CONDUIT    401.68   262  21:00     34.50    0.00    0.02
  17                   CONDUIT      0.03   227  19:00      0.01    0.00    0.00
  18                   CONDUIT  54438.18   259  02:54      5.82   88.41    0.74
  19                   CONDUIT   3778.32   312  00:00      5.50    0.00    0.50
  20                   CONDUIT      1.00   312  00:00      0.00    0.00    0.24
  21                   CONDUIT  53273.48   262  21:00      9.00    0.49    0.54
  22                   CONDUIT  54456.21   262  21:02      7.12    0.69    0.60
  23                   CONDUIT   5385.99   210  14:30      0.78    0.11    0.80
  24                   CONDUIT  55813.41   262  21:06      5.14    0.72    0.81
  25                   CONDUIT    496.06   262  21:01      0.07    0.00    0.52
  26                   CONDUIT      0.00     0  00:00      0.00    0.00    0.50
  27                   CONDUIT   5245.64   262  21:05      0.78    0.11    1.00
  28                   CONDUIT  50235.16   262  21:10      4.00  141.31    1.00
  29                   CONDUIT   2887.78   262  21:06      0.40    0.02    0.55
  30                   CONDUIT  50304.60   262  21:06      4.37    1.26    0.86
  31                   CONDUIT   5257.46   262  21:05      6.69    2.28    1.00
  
  
  ***************************
  Flow Classification Summary
  ***************************
  
  -------------------------------------------------------------------------------------
                      Adjusted    ---------- Fraction of Time in Flow Class ---------- 
                       /Actual         Up    Down  Sub   Sup   Up    Down  Norm  Inlet 
  Conduit               Length    Dry  Dry   Dry   Crit  Crit  Crit  Crit  Ltd   Ctrl  
  -------------------------------------------------------------------------------------
  0                       1.00   1.00  0.00  0.00  0.00  0.00  0.00  0.00  0.00  0.00
  1                       1.00   0.00  1.00  0.00  0.00  0.00  0.00  0.00  0.00  0.00
  2                       1.00   1.00  0.00  0.00  0.00  0.00  0.00  0.00  0.00  0.00
  3                       1.00   1.00  0.00  0.00  0.00  0.00  0.00  0.00  0.00  0.00
  4                       1.00   0.00  1.00  0.00  0.00  0.00  0.00  0.00  0.00  0.00
  5                       1.00   0.00  0.00  0.00  1.00  0.00  0.00  0.00  0.99  0.00
  6                       1.00   1.00  0.00  0.00  0.00  0.00  0.00  0.00  0.00  0.00
  7                       1.00   1.00  0.00  0.00  0.00  0.00  0.00  0.00  0.00  0.00
  8                       1.00   1.00  0.00  0.00  0.00  0.00  0.00  0.00  0.00  0.00
  9                       1.00   0.00  0.02  0.00  0.98  0.00  0.00  0.00  0.99  0.00
  10                      1.00   0.00  0.00  0.00  0.56  0.43  0.00  0.00  0.99  0.00
  11                      1.00   0.00  0.00  0.00  1.00  0.00  0.00  0.00  0.99  0.00
  12                      1.00   0.00  0.00  0.00  1.00  0.00  0.00  0.00  0.99  0.00
  13                      1.00   0.00  0.00  0.00  1.00  0.00  0.00  0.00  0.00  0.00
  14                      1.00   0.00  0.78  0.00  0.22  0.00  0.00  0.00  0.99  0.00
  15                      1.00   0.00  0.00  0.00  1.00  0.00  0.00  0.00  0.00  0.00
  16                      1.00   0.13  0.11  0.00  0.15  0.62  0.00  0.00  0.00  0.00
  17                      1.00   0.62  0.00  0.00  0.38  0.00  0.00  0.00  0.16  0.00
  18                      1.00   0.00  0.00  0.00  0.95  0.05  0.00  0.00  0.00  0.00
  19                      1.00   0.00  0.61  0.00  0.38  0.00  0.00  0.00  0.99  0.00
  20                      1.00   0.00  0.65  0.00  0.35  0.00  0.00  0.00  0.99  0.00
  21                      1.00   0.00  0.00  0.00  0.00  1.00  0.00  0.00  0.99  0.00
  22                      1.00   0.00  0.00  0.00  0.00  1.00  0.00  0.00  0.95  0.00
  23                      1.00   0.00  0.00  0.00  1.00  0.00  0.00  0.00  0.00  0.00
  24                      1.00   0.00  0.00  0.00  0.31  0.69  0.00  0.00  0.99  0.00
  25                      1.00   0.00  0.00  0.00  1.00  0.00  0.00  0.00  0.99  0.00
  26                      1.00   0.00  1.00  0.00  0.00  0.00  0.00  0.00  0.00  0.00
  27                      1.00   0.00  0.00  0.00  1.00  0.00  0.00  0.00  0.88  0.00
  28                      1.00   0.00  0.00  0.00  1.00  0.00  0.00  0.00  0.00  0.00
  29                      1.00   0.00  1.00  0.00  0.00  0.00  0.00  0.00  0.22  0.00
  30                      1.00   0.00  0.00  0.00  0.70  0.30  0.00  0.00  0.00  0.00
  31                      1.00   0.00  0.00  0.00  1.00  0.00  0.00  0.00  0.00  0.00
  
  
  *************************
  Conduit Surcharge Summary
  *************************
  
  ----------------------------------------------------------------------------
                                                           Hours        Hours 
                         --------- Hours Full --------   Above Full   Capacity
  Conduit                Both Ends  Upstream  Dnstream   Normal Flow   Limited
  ----------------------------------------------------------------------------
  11                          0.01      0.01   7883.62      0.01         0.01
  12                          0.01      0.01   7860.96      0.01         0.01
  13                         14.52     14.52   7883.62      0.01         0.01
  14                          0.01      0.01      5.78      0.01         0.01
  15                          4.23     14.52      4.23   6825.85         4.23
  18                          0.01      4.23      0.01   5467.89         0.01
  19                          0.01      0.01      4.23      0.01         0.01
  23                          0.01      0.01   7865.95      0.01         0.01
  24                          0.01      0.01      6.04      0.01         0.01
  25                          0.01      0.01   7865.95      0.01         0.01
  27                          6.04      6.04   7873.73      0.01         0.01
  28                          5.20      6.04      5.20   1273.42         5.20
  29                          0.01      0.01   1724.95      0.01         0.01
  30                          0.01      5.20      0.01      5.49         0.01
  31                       1148.55   1148.55   7873.63   1508.52         0.01
  

  Analysis begun on:  Tue Apr 14 21:44:34 2020
  Analysis ended on:  Tue Apr 14 21:49:11 2020
  Total elapsed time: 00:04:37