
  EPA STORM WATER MANAGEMENT MODEL - VERSION 5.1 (Build 5.1.013)
  --------------------------------------------------------------

  Template input file for Gottesacker karst system.  
  Based on input files created by Zhao Chen. 
  Modified by Chloe Fandel: 
  
  WARNING 08: elevation drop exceeds length for Conduit 2
  WARNING 04: minimum elevation drop used for Conduit 4
  WARNING 04: minimum elevation drop used for Conduit 11
  WARNING 04: minimum elevation drop used for Conduit 18
  WARNING 08: elevation drop exceeds length for Conduit 20
  
  *********************************************************
  NOTE: The summary statistics displayed in this report are
  based on results found at every computational time step,  
  not just on results from each reporting time step.
  *********************************************************
  
  ****************
  Analysis Options
  ****************
  Flow Units ............... LPS
  Process Models:
    Rainfall/Runoff ........ YES
    RDII ................... NO
    Snowmelt ............... NO
    Groundwater ............ NO
    Flow Routing ........... YES
    Ponding Allowed ........ NO
    Water Quality .......... NO
  Infiltration Method ...... HORTON
  Flow Routing Method ...... DYNWAVE
  Surcharge Method ......... EXTRAN
  Starting Date ............ 11/14/2013 00:00:00
  Ending Date .............. 10/11/2014 00:00:00
  Antecedent Dry Days ...... 0.0
  Report Time Step ......... 01:00:00
  Wet Time Step ............ 00:30:00
  Dry Time Step ............ 01:00:00
  Routing Time Step ........ 30.00 sec
  Variable Time Step ....... YES
  Maximum Trials ........... 8
  Number of Threads ........ 4
  Head Tolerance ........... 0.001524 m
  
  
  **************************        Volume         Depth
  Runoff Quantity Continuity     hectare-m            mm
  **************************     ---------       -------
  Total Precipitation ......      1918.244       705.626
  Evaporation Loss .........         0.000         0.000
  Infiltration Loss ........         0.000         0.000
  Surface Runoff ...........      1915.103       704.470
  Final Storage ............         3.433         1.263
  Continuity Error (%) .....        -0.015
  
  
  **************************        Volume        Volume
  Flow Routing Continuity        hectare-m      10^6 ltr
  **************************     ---------     ---------
  Dry Weather Inflow .......         0.000         0.000
  Wet Weather Inflow .......      1915.097     19151.169
  Groundwater Inflow .......         0.000         0.000
  RDII Inflow ..............         0.000         0.000
  External Inflow ..........         1.166        11.662
  External Outflow .........      2527.976     25280.021
  Flooding Loss ............        18.906       189.059
  Evaporation Loss .........         0.000         0.000
  Exfiltration Loss ........         0.000         0.000
  Initial Stored Volume ....         0.000         0.000
  Final Stored Volume ......         0.212         2.121
  Continuity Error (%) .....       -32.920
  
  
  *************************
  Highest Continuity Errors
  *************************
  Node 9 (-6.12%)
  
  
  ***************************
  Time-Step Critical Elements
  ***************************
  Link 24 (80.83%)
  Link 22 (1.85%)
  
  
  ********************************
  Highest Flow Instability Indexes
  ********************************
  Link 11 (120)
  Link 12 (114)
  Link 6 (30)
  Link 24 (15)
  Link 18 (6)
  
  
  *************************
  Routing Time Step Summary
  *************************
  Minimum Time Step           :     0.91 sec
  Average Time Step           :    18.17 sec
  Maximum Time Step           :    30.00 sec
  Percent in Steady State     :     0.30
  Average Iterations per Step :     4.28
  Percent Not Converging      :    26.72
  
  
  ***************************
  Subcatchment Runoff Summary
  ***************************
  
  ------------------------------------------------------------------------------------------------------------------------------
                            Total      Total      Total      Total     Imperv       Perv      Total       Total     Peak  Runoff
                           Precip      Runon       Evap      Infil     Runoff     Runoff     Runoff      Runoff   Runoff   Coeff
  Subcatchment                 mm         mm         mm         mm         mm         mm         mm    10^6 ltr      LPS
  ------------------------------------------------------------------------------------------------------------------------------
  S1                         0.00       0.00       0.00       0.00       0.00       0.00       0.00        0.00     0.00   0.000
  S2                         0.00       0.00       0.00       0.00       0.00       0.00       0.00        0.00     0.00   0.000
  S3                         0.00       0.00       0.00       0.00       0.00       0.00       0.00        0.00     0.00   0.000
  S4                         0.00       0.00       0.00       0.00       0.00       0.00       0.00        0.00     0.00   0.000
  S5                      1037.52       0.00       0.00       0.00    1038.15       0.00    1038.15       72.67    62.44   1.001
  S6                      1025.22       0.00       0.00       0.00    1025.31       0.00    1025.31      371.68   262.35   1.000
  S7                      1067.22       0.00       0.00       0.00    1067.44       0.00    1067.44      296.22   218.08   1.000
  S8                      1385.10       0.00       0.00       0.00    1385.52       0.00    1385.52      498.79   466.98   1.000
  S9                      1036.22       0.00       0.00       0.00    1036.14       0.00    1036.14      841.87   614.86   1.000
  S10                     1303.86       0.00       0.00       0.00    1304.83       0.00    1304.83      123.96   153.90   1.001
  S11                     1323.24       0.00       0.00       0.00    1324.30       0.00    1324.30      115.88   125.53   1.001
  S12                     1003.45       0.00       0.00       0.00    1004.05       0.00    1004.05       80.32    68.42   1.001
  S13                     1565.06       0.00       0.00       0.00    1565.91       0.00    1565.91      246.63   210.79   1.001
  S14                     1589.63       0.00       0.00       0.00    1590.24       0.00    1590.24      381.66   311.46   1.000
  S15                     1292.86       0.00       0.00       0.00    1293.18       0.00    1293.18      484.95   498.34   1.000
  S16                      770.39       0.00       0.00       0.00     770.36       0.00     770.36      381.33   362.19   1.000
  S17                        0.00       0.00       0.00       0.00       0.00       0.00       0.00        0.00     0.00   0.000
  S18                     1447.74       0.00       0.00       0.00    1447.95       0.00    1447.95      908.60   777.54   1.000
  S19                     1445.01       0.00       0.00       0.00    1445.95       0.00    1445.95      195.20   205.61   1.001
  S20                      848.36       0.00       0.00       0.00     846.43       0.00     846.43    13936.51  5208.68   0.998
  S21                     1369.60       0.00       0.00       0.00    1371.06       0.00    1371.06       82.26    92.06   1.001
  S22                       22.11       0.00       0.00       0.00      21.88       0.00      21.88       81.55    15.50   0.989
  S23                     1359.91       0.00       0.00       0.00    1361.72       0.00    1361.72       51.06    60.01   1.001
  S24                        0.00       0.00       0.00       0.00       0.00       0.00       0.00        0.00     0.00   0.000
  S25                        0.00       0.00       0.00       0.00       0.00       0.00       0.00        0.00     0.00   0.000
  
  
  ******************
  Node Depth Summary
  ******************
  
  ---------------------------------------------------------------------------------
                                 Average  Maximum  Maximum  Time of Max    Reported
                                   Depth    Depth      HGL   Occurrence   Max Depth
  Node                 Type       Meters   Meters   Meters  days hr:min      Meters
  ---------------------------------------------------------------------------------
  0                    JUNCTION     0.00     0.00  1872.50     0  00:00        0.00
  1                    JUNCTION     0.00     0.00  1735.00     0  00:00        0.00
  2                    JUNCTION     0.00     0.00  1762.50     0  00:00        0.00
  3                    JUNCTION     0.77   149.68  1582.18   259  03:19      149.01
  4                    JUNCTION     0.01     0.07  1955.07   259  03:02        0.07
  5                    JUNCTION     0.01     0.08  1927.58   259  03:00        0.08
  6                    JUNCTION     0.05     0.22  1817.72   259  03:07        0.22
  7                    JUNCTION     0.03     0.19  1762.69   262  21:01        0.19
  8                    JUNCTION     3.03    59.86  1684.86   259  02:44       58.24
  9                    JUNCTION     3.18    59.98  1684.98   259  02:44       58.02
  10                   JUNCTION     0.00     0.01  1707.51   259  03:00        0.01
  11                   JUNCTION     0.04     0.89  1680.89   259  03:03        0.88
  12                   JUNCTION     1.40   204.00  1581.50   236  23:57      204.00
  13                   JUNCTION     1.37   204.00  1581.50   236  23:57      204.00
  14                   JUNCTION     0.03     0.19  1680.19   262  21:01        0.19
  15                   JUNCTION     0.12     2.74  1545.24   262  22:54        2.74
  16                   JUNCTION     0.00     0.00  1570.00     0  00:00        0.00
  17                   JUNCTION     1.17    99.01  1531.51   262  21:00       98.97
  18                   JUNCTION     5.47   161.28  1291.28   237  07:00      161.27
  19                   JUNCTION    14.19   171.20  1273.70   237  07:00      171.19
  20                   JUNCTION    10.78   143.26  1245.76   237  07:00      143.25
  21                   JUNCTION    16.05    22.59  1042.59   237  07:00       22.59
  22                   OUTFALL      0.21     1.00  1121.00   168  21:57        1.00
  23                   OUTFALL      0.36     0.76  1080.76   237  07:00        0.76
  24                   OUTFALL      0.20     0.58  1035.58   237  07:00        0.58
  
  
  *******************
  Node Inflow Summary
  *******************
  
  -------------------------------------------------------------------------------------------------
                                  Maximum  Maximum                  Lateral       Total        Flow
                                  Lateral    Total  Time of Max      Inflow      Inflow     Balance
                                   Inflow   Inflow   Occurrence      Volume      Volume       Error
  Node                 Type           LPS      LPS  days hr:min    10^6 ltr    10^6 ltr     Percent
  -------------------------------------------------------------------------------------------------
  0                    JUNCTION      0.00     0.00     0  00:00           0           0       0.000 ltr
  1                    JUNCTION      0.00     0.00     0  00:00           0           0       0.000 ltr
  2                    JUNCTION      0.00     0.00     0  00:00           0           0       0.000 ltr
  3                    JUNCTION      0.00 10476.04   259  03:02           0        32.3       0.000
  4                    JUNCTION     63.47    63.47   259  03:00        74.7        74.7      -0.057
  5                    JUNCTION    263.34   263.34   259  03:00         374         374       0.000
  6                    JUNCTION    219.04   545.00   259  03:00         298         748      -0.010
  7                    JUNCTION    467.05   467.05   262  21:00         499         499      -0.030
  8                    JUNCTION    615.26 12041.68   259  02:45         843    8.19e+03      -0.405
  9                    JUNCTION    154.39  9694.66   262  19:00         125    6.65e+03      -5.765
  10                   JUNCTION    125.63   125.63   262  21:00         116         116       0.000
  11                   JUNCTION     69.13 11650.60   259  02:45        82.4    1.47e+03      -0.523
  12                   JUNCTION    210.79 10448.04   259  03:02         247         459      -0.061
  13                   JUNCTION    311.46 11334.02   259  03:03         382    1.98e+03       0.100
  14                   JUNCTION    498.34   498.34   262  21:00         485         485      -0.030
  15                   JUNCTION    362.19   857.72   262  21:00         381         866       0.031
  16                   JUNCTION      0.00     0.00     0  00:00           0           0       0.000 ltr
  17                   JUNCTION    777.54  2433.76   262  19:12         909    9.36e+03       0.000
  18                   JUNCTION    205.61  2383.54   262  19:23         195    9.57e+03      -0.006
  19                   JUNCTION   5208.72  7204.17   237  07:00    1.39e+04    1.93e+04      -0.001
  20                   JUNCTION     92.06  1751.10   237  07:00        82.3     1.1e+04      -0.004
  21                   JUNCTION     15.50  1454.96   237  07:00        81.5    5.94e+03       0.830
  22                   OUTFALL      60.01  5525.23   237  07:00        51.1    8.37e+03       0.000
  23                   OUTFALL       0.00  1751.00   237  07:00           0     1.1e+04       0.000
  24                   OUTFALL       0.00  1454.95   237  07:00           0    5.89e+03       0.000
  
  
  **********************
  Node Surcharge Summary
  **********************
  
  Surcharging occurs when water rises above the top of the highest conduit.
  ---------------------------------------------------------------------
                                               Max. Height   Min. Depth
                                   Hours       Above Crown    Below Rim
  Node                 Type      Surcharged         Meters       Meters
  ---------------------------------------------------------------------
  3                    JUNCTION       22.37        145.675        0.000
  8                    JUNCTION      232.12         55.859        0.000
  9                    JUNCTION      233.69         55.982        0.000
  12                   JUNCTION       34.11        200.000        0.000
  13                   JUNCTION       34.13        200.000        0.000
  17                   JUNCTION       74.84         98.006        0.000
  18                   JUNCTION      658.99        160.282        0.000
  19                   JUNCTION     4448.20        170.199        0.000
  20                   JUNCTION     3048.94        142.261        0.000
  21                   JUNCTION     7825.17         21.586        0.000
  
  
  *********************
  Node Flooding Summary
  *********************
  
  Flooding refers to all water that overflows a node, whether it ponds or not.
  --------------------------------------------------------------------------
                                                             Total   Maximum
                                 Maximum   Time of Max       Flood    Ponded
                        Hours       Rate    Occurrence      Volume     Depth
  Node                 Flooded       LPS   days hr:min    10^6 ltr    Meters
  --------------------------------------------------------------------------
  12                     17.49   4586.04    259  03:19      12.610   200.000
  13                     17.36   7534.41    259  03:29     176.448   200.000
  
  
  ***********************
  Outfall Loading Summary
  ***********************
  
  -----------------------------------------------------------
                         Flow       Avg       Max       Total
                         Freq      Flow      Flow      Volume
  Outfall Node           Pcnt       LPS       LPS    10^6 ltr
  -----------------------------------------------------------
  22                    84.55    565.35   5525.23    8369.454
  23                    99.52    491.00   1751.00   11020.831
  24                    97.80    312.70   1454.95    5890.064
  -----------------------------------------------------------
  System                93.96   1369.05   1454.95   25280.349
  
  
  ********************
  Link Flow Summary
  ********************
  
  -----------------------------------------------------------------------------
                                 Maximum  Time of Max   Maximum    Max/    Max/
                                  |Flow|   Occurrence   |Veloc|    Full    Full
  Link                 Type          LPS  days hr:min     m/sec    Flow   Depth
  -----------------------------------------------------------------------------
  0                    CONDUIT      0.00     0  00:00      0.00    0.00    0.00
  1                    CONDUIT      0.00     0  00:00      0.00    0.00    0.50
  2                    CONDUIT      0.00     0  00:00      0.00    0.00    0.00
  3                    CONDUIT  10476.04   259  03:02      1.47    0.28    1.00
  4                    CONDUIT  10239.04   259  03:02      1.43   24.87    1.00
  5                    CONDUIT     62.92   259  03:02      0.43    0.00    0.04
  6                    CONDUIT    263.30   259  03:00      1.73    0.00    0.04
  7                    CONDUIT    539.53   259  03:07     19.31    0.01    0.14
  8                    CONDUIT  11076.22   259  02:45      1.41    0.15    0.61
  9                    CONDUIT  11024.73   259  03:03      4.05    0.11    0.61
  10                   CONDUIT    464.29   262  21:01      0.11    0.00    0.52
  11                   CONDUIT  11537.56   259  02:45      0.92   37.48    1.00
  12                   CONDUIT   9188.26   262  19:00      3.98    0.00    0.50
  13                   CONDUIT   1426.98   259  00:59      1.89    1.21    1.00
  14                   CONDUIT    809.91   263  02:07      1.09    0.81    1.00
  15                   CONDUIT   2194.66   262  19:23      2.79    0.96    1.00
  16                   CONDUIT   1489.72   259  09:32      1.90    1.13    1.00
  17                   CONDUIT   1171.62   262  19:24      1.49    1.51    1.00
  18                   CONDUIT   1706.50   237  07:00      2.17  300.69    1.00
  19                   CONDUIT    496.10   262  21:01      0.78    0.00    0.36
  20                   CONDUIT      0.00     0  00:00      0.00    0.00    0.50
  21                   CONDUIT   1439.94   237  07:00      1.83    1.49    1.00
  22                   CONDUIT   5497.47   237  07:00      7.00    2.90    1.00
  23                   CONDUIT   1751.00   237  07:00      2.39    2.74    0.88
  24                   CONDUIT   1454.95   237  07:00      2.19    0.63    0.79
  
  
  ***************************
  Flow Classification Summary
  ***************************
  
  -------------------------------------------------------------------------------------
                      Adjusted    ---------- Fraction of Time in Flow Class ---------- 
                       /Actual         Up    Down  Sub   Sup   Up    Down  Norm  Inlet 
  Conduit               Length    Dry  Dry   Dry   Crit  Crit  Crit  Crit  Ltd   Ctrl  
  -------------------------------------------------------------------------------------
  0                       1.00   1.00  0.00  0.00  0.00  0.00  0.00  0.00  0.00  0.00
  1                       1.00   0.00  1.00  0.00  0.00  0.00  0.00  0.00  0.00  0.00
  2                       1.00   1.00  0.00  0.00  0.00  0.00  0.00  0.00  0.00  0.00
  3                       1.00   0.00  0.98  0.00  0.02  0.00  0.00  0.00  0.28  0.00
  4                       1.00   0.00  0.00  0.00  1.00  0.00  0.00  0.00  0.00  0.00
  5                       1.00   0.00  0.02  0.00  0.98  0.00  0.00  0.00  0.99  0.00
  6                       1.00   0.00  0.10  0.00  0.29  0.60  0.00  0.00  0.76  0.00
  7                       1.00   0.00  0.00  0.00  0.23  0.76  0.00  0.00  0.02  0.00
  8                       1.00   0.00  0.00  0.00  1.00  0.00  0.00  0.00  0.98  0.00
  9                       1.00   0.00  0.00  0.00  0.99  0.00  0.00  0.00  0.99  0.00
  10                      1.00   0.00  0.00  0.00  0.99  0.00  0.00  0.00  0.99  0.00
  11                      1.00   0.00  0.00  0.00  1.00  0.00  0.00  0.00  0.00  0.00
  12                      1.00   0.00  0.58  0.00  0.41  0.00  0.00  0.00  0.99  0.00
  13                      1.00   0.00  0.00  0.00  0.99  0.00  0.00  0.00  0.01  0.00
  14                      1.00   0.00  0.00  0.00  1.00  0.00  0.00  0.00  0.98  0.00
  15                      1.00   0.00  0.00  0.00  0.18  0.82  0.00  0.00  0.96  0.00
  16                      1.00   0.00  0.00  0.00  1.00  0.00  0.00  0.00  0.98  0.00
  17                      1.00   0.00  0.00  0.00  1.00  0.00  0.00  0.00  0.84  0.00
  18                      1.00   0.00  0.00  0.00  1.00  0.00  0.00  0.00  0.00  0.00
  19                      1.00   0.00  0.00  0.00  1.00  0.00  0.00  0.00  0.99  0.00
  20                      1.00   0.00  1.00  0.00  0.00  0.00  0.00  0.00  0.00  0.00
  21                      1.00   0.00  0.00  0.00  1.00  0.00  0.00  0.00  0.90  0.00
  22                      1.00   0.00  0.55  0.00  0.45  0.00  0.00  0.00  0.32  0.00
  23                      1.00   0.00  0.00  0.00  1.00  0.00  0.00  0.00  0.00  0.00
  24                      1.00   0.00  0.01  0.00  0.99  0.00  0.00  0.00  0.19  0.00
  
  
  *************************
  Conduit Surcharge Summary
  *************************
  
  ----------------------------------------------------------------------------
                                                           Hours        Hours 
                         --------- Hours Full --------   Above Full   Capacity
  Conduit                Both Ends  Upstream  Dnstream   Normal Flow   Limited
  ----------------------------------------------------------------------------
  3                          22.37     22.37     33.92      0.01         0.01
  4                          34.10     34.11     34.13     87.58         6.78
  8                           0.01      0.01    232.05      0.01         0.01
  9                           0.01      0.01     34.13      0.01         0.01
  10                          0.01      0.01    232.30      0.01         0.01
  11                        231.91    232.30    232.08   1871.81        46.48
  12                          0.01      0.01    232.41      0.01         0.01
  13                         74.83    610.61     74.83    196.20        43.10
  14                          8.47      8.47     74.84      0.01         0.01
  15                         74.83     74.83    658.97      0.01         0.01
  16                        106.35    106.35   4448.11     20.90        20.94
  17                        658.97    658.97   4448.11     92.27        96.13
  18                       3048.94   4448.11   3048.94   7603.79      3048.94
  21                        658.97    658.97   7825.17    304.87       322.60
  22                         97.72     97.72   5098.48    299.39         0.01
  23                          0.01   3048.90      0.01   2765.12         0.01
  24                          0.01      0.01   7823.23      0.01         0.01
  

  Analysis begun on:  Tue Apr 14 21:59:26 2020
  Analysis ended on:  Tue Apr 14 22:00:57 2020
  Total elapsed time: 00:01:31