
  EPA STORM WATER MANAGEMENT MODEL - VERSION 5.1 (Build 5.1.013)
  --------------------------------------------------------------

  Template input file for Gottesacker karst system.  
  Based on input files created by Zhao Chen. 
  Modified by Chloe Fandel: 
  
  WARNING 04: minimum elevation drop used for Conduit 3
  WARNING 04: minimum elevation drop used for Conduit 4
  WARNING 04: minimum elevation drop used for Conduit 11
  WARNING 04: minimum elevation drop used for Conduit 12
  WARNING 04: minimum elevation drop used for Conduit 15
  
  *********************************************************
  NOTE: The summary statistics displayed in this report are
  based on results found at every computational time step,  
  not just on results from each reporting time step.
  *********************************************************
  
  ****************
  Analysis Options
  ****************
  Flow Units ............... LPS
  Process Models:
    Rainfall/Runoff ........ YES
    RDII ................... NO
    Snowmelt ............... NO
    Groundwater ............ NO
    Flow Routing ........... YES
    Ponding Allowed ........ NO
    Water Quality .......... NO
  Infiltration Method ...... HORTON
  Flow Routing Method ...... DYNWAVE
  Surcharge Method ......... EXTRAN
  Starting Date ............ 11/14/2013 00:00:00
  Ending Date .............. 10/11/2014 00:00:00
  Antecedent Dry Days ...... 0.0
  Report Time Step ......... 01:00:00
  Wet Time Step ............ 00:30:00
  Dry Time Step ............ 01:00:00
  Routing Time Step ........ 30.00 sec
  Variable Time Step ....... YES
  Maximum Trials ........... 8
  Number of Threads ........ 4
  Head Tolerance ........... 0.001524 m
  
  
  **************************        Volume         Depth
  Runoff Quantity Continuity     hectare-m            mm
  **************************     ---------       -------
  Total Precipitation ......      1860.586       693.149
  Evaporation Loss .........         0.000         0.000
  Infiltration Loss ........         0.000         0.000
  Surface Runoff ...........      1857.510       692.003
  Final Storage ............         3.294         1.227
  Continuity Error (%) .....        -0.012
  
  
  **************************        Volume        Volume
  Flow Routing Continuity        hectare-m      10^6 ltr
  **************************     ---------     ---------
  Dry Weather Inflow .......         0.000         0.000
  Wet Weather Inflow .......      1857.464     18574.833
  Groundwater Inflow .......         0.000         0.000
  RDII Inflow ..............         0.000         0.000
  External Inflow ..........         0.787         7.872
  External Outflow .........      1466.158     14661.734
  Flooding Loss ............         0.000         0.000
  Evaporation Loss .........         0.000         0.000
  Exfiltration Loss ........         0.000         0.000
  Initial Stored Volume ....         0.000         0.000
  Final Stored Volume ......         5.133        51.329
  Continuity Error (%) .....        20.824
  
  
  *************************
  Highest Continuity Errors
  *************************
  Node 14 (27.79%)
  Node 15 (-22.85%)
  Node 10 (19.63%)
  Node 9 (-1.58%)
  Node 11 (1.29%)
  
  
  ***************************
  Time-Step Critical Elements
  ***************************
  Link 16 (50.08%)
  Link 18 (2.92%)
  
  
  ********************************
  Highest Flow Instability Indexes
  ********************************
  Link 17 (75)
  Link 15 (34)
  Link 4 (31)
  Link 12 (28)
  Link 3 (27)
  
  
  *************************
  Routing Time Step Summary
  *************************
  Minimum Time Step           :     0.88 sec
  Average Time Step           :    21.18 sec
  Maximum Time Step           :    30.00 sec
  Percent in Steady State     :     0.30
  Average Iterations per Step :     3.62
  Percent Not Converging      :    25.37
  
  
  ***************************
  Subcatchment Runoff Summary
  ***************************
  
  ------------------------------------------------------------------------------------------------------------------------------
                            Total      Total      Total      Total     Imperv       Perv      Total       Total     Peak  Runoff
                           Precip      Runon       Evap      Infil     Runoff     Runoff     Runoff      Runoff   Runoff   Coeff
  Subcatchment                 mm         mm         mm         mm         mm         mm         mm    10^6 ltr      LPS
  ------------------------------------------------------------------------------------------------------------------------------
  S1                         0.00       0.00       0.00       0.00       0.00       0.00       0.00        0.00     0.00   0.000
  S2                         0.00       0.00       0.00       0.00       0.00       0.00       0.00        0.00     0.00   0.000
  S3                         0.00       0.00       0.00       0.00       0.00       0.00       0.00        0.00     0.00   0.000
  S4                      1061.54       0.00       0.00       0.00    1061.69       0.00    1061.69      368.94   262.37   1.000
  S5                      1385.10       0.00       0.00       0.00    1385.52       0.00    1385.52      498.79   466.98   1.000
  S6                       977.59       0.00       0.00       0.00     978.10       0.00     978.10      100.26    95.18   1.001
  S7                      1292.86       0.00       0.00       0.00    1293.18       0.00    1293.18      484.95   498.34   1.000
  S8                       936.91       0.00       0.00       0.00     936.87       0.00     936.87      592.57   423.47   1.000
  S9                      1448.24       0.00       0.00       0.00    1448.36       0.00    1448.36     1100.76   905.01   1.000
  S10                      968.87       0.00       0.00       0.00     966.94       0.00     966.94    14774.92  5766.92   0.998
  S11                        0.00       0.00       0.00       0.00       0.00       0.00       0.00        0.00     0.00   0.000
  S12                     1364.67       0.00       0.00       0.00    1365.98       0.00    1365.98      102.45   112.96   1.001
  S13                     1369.60       0.00       0.00       0.00    1371.06       0.00    1371.06       82.26    92.06   1.001
  S14                        0.00       0.00       0.00       0.00       0.00       0.00       0.00        0.00     0.00   0.000
  S15                        0.00       0.00       0.00       0.00       0.00       0.00       0.00        0.00     0.00   0.000
  S16                       98.86       0.00       0.00       0.00      98.41       0.00      98.41      418.25   117.41   0.995
  S17                     1359.91       0.00       0.00       0.00    1361.72       0.00    1361.72       51.06    60.01   1.001
  S18                        0.00       0.00       0.00       0.00       0.00       0.00       0.00        0.00     0.00   0.000
  S19                        0.00       0.00       0.00       0.00       0.00       0.00       0.00        0.00     0.00   0.000
  
  
  ******************
  Node Depth Summary
  ******************
  
  ---------------------------------------------------------------------------------
                                 Average  Maximum  Maximum  Time of Max    Reported
                                   Depth    Depth      HGL   Occurrence   Max Depth
  Node                 Type       Meters   Meters   Meters  days hr:min      Meters
  ---------------------------------------------------------------------------------
  0                    JUNCTION     0.00     0.00  1872.50     0  00:00        0.00
  1                    JUNCTION     0.00     0.00  1432.50     0  00:00        0.00
  2                    JUNCTION     0.00     0.00  1405.00     0  00:00        0.00
  3                    JUNCTION     0.03     0.15  1955.15   259  03:08        0.15
  4                    JUNCTION     0.04     0.24  1762.74   262  21:02        0.24
  5                    JUNCTION     0.04     0.21  1652.71   262  21:09        0.21
  6                    JUNCTION     0.03     0.20  1680.20   262  21:02        0.20
  7                    JUNCTION     0.07     0.33  1322.83   262  21:11        0.33
  8                    JUNCTION     0.12     0.59  1130.59   262  21:11        0.59
  9                    JUNCTION    15.91    18.81  1121.31   131  17:44       18.42
  10                   JUNCTION    15.91    18.66  1121.16   131  17:44       18.41
  11                   JUNCTION    15.91    18.84  1121.34   131  17:44       18.42
  12                   JUNCTION    15.91    18.90  1121.40   131  17:44       18.42
  13                   JUNCTION     0.01     0.06  1130.06   262  21:24        0.06
  14                   JUNCTION     3.84     5.06  1080.06   262  21:23        5.06
  15                   JUNCTION    11.64    15.31  1035.31   237  07:00       15.31
  16                   OUTFALL      0.15     0.77  1120.77   131  17:44        0.64
  17                   OUTFALL      0.00     0.09  1080.09   262  20:55        0.06
  18                   OUTFALL      0.06     0.16  1035.16   237  07:00        0.16
  
  
  *******************
  Node Inflow Summary
  *******************
  
  -------------------------------------------------------------------------------------------------
                                  Maximum  Maximum                  Lateral       Total        Flow
                                  Lateral    Total  Time of Max      Inflow      Inflow     Balance
                                   Inflow   Inflow   Occurrence      Volume      Volume       Error
  Node                 Type           LPS      LPS  days hr:min    10^6 ltr    10^6 ltr     Percent
  -------------------------------------------------------------------------------------------------
  0                    JUNCTION      0.00     0.00     0  00:00           0           0       0.000 ltr
  1                    JUNCTION      0.00     0.00     0  00:00           0           0       0.000 ltr
  2                    JUNCTION      0.00     0.00     0  00:00           0           0       0.000 ltr
  3                    JUNCTION    263.34   263.34   259  03:00         371         371      -0.018
  4                    JUNCTION    467.05   467.05   262  21:00         499         499       0.000
  5                    JUNCTION     95.68   756.43   262  21:02         102         972       0.010
  6                    JUNCTION    498.34   498.34   262  21:00         485         485       0.000
  7                    JUNCTION    423.95  1657.23   262  21:03         594    2.05e+03       0.010
  8                    JUNCTION    905.01  2531.12   262  21:03     1.1e+03    3.15e+03       0.001
  9                    JUNCTION   5766.97 41966.07    41  06:25    1.48e+04    1.88e+04      -1.559
  10                   JUNCTION      0.00 25206.72    41  06:25           0    2.24e+04      24.430
  11                   JUNCTION    112.96 68688.87    41  06:26         102    9.19e+03       1.310
  12                   JUNCTION     92.06 10872.44    41  07:07        82.3         139       0.000
  13                   JUNCTION      0.00   102.06   262  21:12           0        77.6       0.036
  14                   JUNCTION      0.00    69.21   262  21:24           0        53.4      38.476
  15                   JUNCTION    117.41   136.65   237  07:00         418         444     -18.603
  16                   OUTFALL      60.01  7552.09   237  06:59        51.1    1.41e+04       0.000
  17                   OUTFALL       0.00   100.24   262  20:55           0        38.5       0.000
  18                   OUTFALL       0.00   136.65   237  07:00           0         546       0.000
  
  
  **********************
  Node Surcharge Summary
  **********************
  
  Surcharging occurs when water rises above the top of the highest conduit.
  ---------------------------------------------------------------------
                                               Max. Height   Min. Depth
                                   Hours       Above Crown    Below Rim
  Node                 Type      Surcharged         Meters       Meters
  ---------------------------------------------------------------------
  9                    JUNCTION     6952.89         14.813        0.000
  10                   JUNCTION     6952.93         14.657        0.000
  11                   JUNCTION     6953.00         14.839        0.000
  12                   JUNCTION     6952.96         14.903        0.000
  14                   JUNCTION     4879.71          1.065        0.000
  15                   JUNCTION     5133.78         11.315        0.000
  
  
  *********************
  Node Flooding Summary
  *********************
  
  No nodes were flooded.
  
  
  ***********************
  Outfall Loading Summary
  ***********************
  
  -----------------------------------------------------------
                         Flow       Avg       Max       Total
                         Freq      Flow      Flow      Volume
  Outfall Node           Pcnt       LPS       LPS    10^6 ltr
  -----------------------------------------------------------
  16                    85.33    956.73   7552.09   14092.381
  17                    69.92      3.03    100.24      38.549
  18                    73.54     33.48    136.65     546.422
  -----------------------------------------------------------
  System                76.27    993.24    136.65   14677.352
  
  
  ********************
  Link Flow Summary
  ********************
  
  -----------------------------------------------------------------------------
                                 Maximum  Time of Max   Maximum    Max/    Max/
                                  |Flow|   Occurrence   |Veloc|    Full    Full
  Link                 Type          LPS  days hr:min     m/sec    Flow   Depth
  -----------------------------------------------------------------------------
  0                    CONDUIT      0.00     0  00:00      0.00    0.00    0.00
  1                    CONDUIT      0.00     0  00:00      0.00    0.00    0.00
  2                    CONDUIT      0.00     0  00:00      0.00    0.00    0.50
  3                    CONDUIT  21775.80    41  06:25      1.76   35.37    1.00
  4                    CONDUIT  29329.30    41  06:26      2.74   47.63    1.00
  5                    CONDUIT    260.30   259  03:08      1.35    0.00    0.04
  6                    CONDUIT    462.04   262  21:03      1.64    0.01    0.06
  7                    CONDUIT    748.38   262  21:10      2.11    0.01    0.07
  8                    CONDUIT    492.73   262  21:03      1.37    0.01    0.07
  9                    CONDUIT   1646.62   262  21:11      2.02    0.01    0.12
  10                   CONDUIT   2418.82   262  21:11      0.32    0.05    0.57
  11                   CONDUIT    102.06   262  21:12      0.21    0.60    0.08
  12                   CONDUIT  24952.39    41  06:26      2.33   48.19    1.00
  13                   CONDUIT     69.21   262  21:24      0.01    0.00    0.51
  14                   CONDUIT     31.34   262  21:24      0.00    0.00    0.51
  15                   CONDUIT  14406.53    41  06:26      1.38   40.53    1.00
  16                   CONDUIT  10972.42   131  17:44      1.41    0.08    0.60
  17                   CONDUIT    100.24   262  20:55      0.02    0.00    0.51
  18                   CONDUIT    136.65   237  07:00      0.29    0.06    0.58
  
  
  ***************************
  Flow Classification Summary
  ***************************
  
  -------------------------------------------------------------------------------------
                      Adjusted    ---------- Fraction of Time in Flow Class ---------- 
                       /Actual         Up    Down  Sub   Sup   Up    Down  Norm  Inlet 
  Conduit               Length    Dry  Dry   Dry   Crit  Crit  Crit  Crit  Ltd   Ctrl  
  -------------------------------------------------------------------------------------
  0                       1.00   1.00  0.00  0.00  0.00  0.00  0.00  0.00  0.00  0.00
  1                       1.00   1.00  0.00  0.00  0.00  0.00  0.00  0.00  0.00  0.00
  2                       1.00   0.00  0.99  0.00  0.00  0.00  0.00  0.00  0.00  0.00
  3                       1.00   0.00  0.00  0.00  0.99  0.00  0.00  0.00  0.00  0.00
  4                       1.00   0.00  0.00  0.00  0.99  0.00  0.00  0.00  0.00  0.00
  5                       1.00   0.00  0.00  0.00  0.69  0.31  0.00  0.00  0.94  0.00
  6                       1.00   0.00  0.00  0.00  0.71  0.28  0.00  0.00  0.32  0.00
  7                       1.00   0.00  0.00  0.00  0.45  0.54  0.00  0.00  0.99  0.00
  8                       1.00   0.00  0.00  0.00  0.98  0.02  0.00  0.00  0.99  0.00
  9                       1.00   0.00  0.00  0.00  0.86  0.14  0.00  0.00  0.99  0.00
  10                      1.00   0.00  0.00  0.00  0.99  0.00  0.00  0.00  0.99  0.00
  11                      1.00   0.00  0.00  0.00  0.99  0.00  0.00  0.00  0.00  0.00
  12                      1.00   0.00  0.00  0.00  0.99  0.00  0.00  0.00  0.00  0.00
  13                      1.00   0.00  0.03  0.00  0.96  0.00  0.00  0.00  0.99  0.00
  14                      1.00   0.00  0.03  0.00  0.96  0.00  0.00  0.00  0.99  0.00
  15                      1.00   0.00  0.00  0.00  0.99  0.00  0.00  0.00  0.00  0.00
  16                      1.00   0.00  0.13  0.00  0.86  0.00  0.00  0.00  0.47  0.00
  17                      1.00   0.00  0.27  0.00  0.73  0.00  0.00  0.00  0.35  0.00
  18                      1.00   0.00  0.25  0.00  0.75  0.00  0.00  0.00  0.13  0.00
  
  
  *************************
  Conduit Surcharge Summary
  *************************
  
  ----------------------------------------------------------------------------
                                                           Hours        Hours 
                         --------- Hours Full --------   Above Full   Capacity
  Conduit                Both Ends  Upstream  Dnstream   Normal Flow   Limited
  ----------------------------------------------------------------------------
  3                        6952.89   6952.89   6952.92   2984.36      2768.63
  4                        6952.89   6952.89   6952.97   1480.87      2119.05
  10                          0.01      0.01   6952.92      0.01         0.01
  12                       6952.89   6952.92   6952.97   1888.15      2658.28
  13                          0.01      0.01   4879.71      0.01         0.01
  14                          0.01      0.01   5133.77      0.01         0.01
  15                       6952.87   6952.97   6952.91      0.70      1451.63
  16                          0.01      0.01   6423.28      0.01         0.01
  17                          0.01      0.01   4877.98      0.01         0.01
  18                          0.01      0.01   5122.86      0.01         0.01
  

  Analysis begun on:  Tue Apr 14 21:30:41 2020
  Analysis ended on:  Tue Apr 14 21:31:56 2020
  Total elapsed time: 00:01:15