
  EPA STORM WATER MANAGEMENT MODEL - VERSION 5.1 (Build 5.1.013)
  --------------------------------------------------------------

  Template input file for Gottesacker karst system.  
  Based on input files created by Zhao Chen. 
  Modified by Chloe Fandel: 
  
  WARNING 08: elevation drop exceeds length for Conduit 2
  WARNING 04: minimum elevation drop used for Conduit 4
  WARNING 04: minimum elevation drop used for Conduit 8
  WARNING 04: minimum elevation drop used for Conduit 13
  WARNING 04: minimum elevation drop used for Conduit 14
  WARNING 08: elevation drop exceeds length for Conduit 17
  WARNING 04: minimum elevation drop used for Conduit 20
  WARNING 04: minimum elevation drop used for Conduit 21
  
  *********************************************************
  NOTE: The summary statistics displayed in this report are
  based on results found at every computational time step,  
  not just on results from each reporting time step.
  *********************************************************
  
  ****************
  Analysis Options
  ****************
  Flow Units ............... LPS
  Process Models:
    Rainfall/Runoff ........ YES
    RDII ................... NO
    Snowmelt ............... NO
    Groundwater ............ NO
    Flow Routing ........... YES
    Ponding Allowed ........ NO
    Water Quality .......... NO
  Infiltration Method ...... HORTON
  Flow Routing Method ...... DYNWAVE
  Surcharge Method ......... EXTRAN
  Starting Date ............ 11/14/2013 00:00:00
  Ending Date .............. 10/11/2014 00:00:00
  Antecedent Dry Days ...... 0.0
  Report Time Step ......... 01:00:00
  Wet Time Step ............ 00:30:00
  Dry Time Step ............ 01:00:00
  Routing Time Step ........ 30.00 sec
  Variable Time Step ....... YES
  Maximum Trials ........... 8
  Number of Threads ........ 4
  Head Tolerance ........... 0.001524 m
  
  
  **************************        Volume         Depth
  Runoff Quantity Continuity     hectare-m            mm
  **************************     ---------       -------
  Total Precipitation ......      2405.521       764.385
  Evaporation Loss .........         0.000         0.000
  Infiltration Loss ........         0.000         0.000
  Surface Runoff ...........      2401.894       763.233
  Final Storage ............         3.945         1.254
  Continuity Error (%) .....        -0.013
  
  
  **************************        Volume        Volume
  Flow Routing Continuity        hectare-m      10^6 ltr
  **************************     ---------     ---------
  Dry Weather Inflow .......         0.000         0.000
  Wet Weather Inflow .......      2401.880     24019.053
  Groundwater Inflow .......         0.000         0.000
  RDII Inflow ..............         0.000         0.000
  External Inflow ..........         4.916        49.159
  External Outflow .........      5992.349     59924.110
  Flooding Loss ............         0.000         0.000
  Evaporation Loss .........         0.000         0.000
  Exfiltration Loss ........         0.000         0.000
  Initial Stored Volume ....         0.000         0.000
  Final Stored Volume ......         3.870        38.704
  Continuity Error (%) .....      -149.137
  
  
  *************************
  Highest Continuity Errors
  *************************
  Node 8 (-138.19%)
  Node 21 (74.55%)
  Node 5 (-11.28%)
  Node 19 (2.44%)
  Node 18 (-1.15%)
  
  
  ***************************
  Time-Step Critical Elements
  ***************************
  Link 22 (51.71%)
  Link 13 (9.99%)
  Link 20 (7.51%)
  Link 24 (5.20%)
  
  
  ********************************
  Highest Flow Instability Indexes
  ********************************
  Link 6 (115)
  Link 7 (108)
  Link 11 (75)
  Link 21 (71)
  Link 8 (70)
  
  
  *************************
  Routing Time Step Summary
  *************************
  Minimum Time Step           :     1.58 sec
  Average Time Step           :    20.44 sec
  Maximum Time Step           :    30.00 sec
  Percent in Steady State     :     0.30
  Average Iterations per Step :     6.26
  Percent Not Converging      :    66.69
  
  
  ***************************
  Subcatchment Runoff Summary
  ***************************
  
  ------------------------------------------------------------------------------------------------------------------------------
                            Total      Total      Total      Total     Imperv       Perv      Total       Total     Peak  Runoff
                           Precip      Runon       Evap      Infil     Runoff     Runoff     Runoff      Runoff   Runoff   Coeff
  Subcatchment                 mm         mm         mm         mm         mm         mm         mm    10^6 ltr      LPS
  ------------------------------------------------------------------------------------------------------------------------------
  S1                         0.00       0.00       0.00       0.00       0.00       0.00       0.00        0.00     0.00   0.000
  S2                         0.00       0.00       0.00       0.00       0.00       0.00       0.00        0.00     0.00   0.000
  S3                         0.00       0.00       0.00       0.00       0.00       0.00       0.00        0.00     0.00   0.000
  S4                         0.00       0.00       0.00       0.00       0.00       0.00       0.00        0.00     0.00   0.000
  S5                      1061.54       0.00       0.00       0.00    1061.69       0.00    1061.69      368.94   262.37   1.000
  S6                      1029.54       0.00       0.00       0.00    1030.00       0.00    1030.00      105.58    87.48   1.000
  S7                      1024.61       0.00       0.00       0.00    1024.82       0.00    1024.82      266.45   198.54   1.000
  S8                      1385.10       0.00       0.00       0.00    1385.52       0.00    1385.52      498.79   466.98   1.000
  S9                      1036.22       0.00       0.00       0.00    1036.14       0.00    1036.14      841.87   614.86   1.000
  S10                     1318.99       0.00       0.00       0.00    1319.66       0.00    1319.66      240.84   252.07   1.001
  S11                      977.59       0.00       0.00       0.00     978.15       0.00     978.15       85.59    82.93   1.001
  S12                     1565.06       0.00       0.00       0.00    1565.91       0.00    1565.91      246.63   210.79   1.001
  S13                     1589.63       0.00       0.00       0.00    1590.24       0.00    1590.24      381.66   311.46   1.000
  S14                     1292.86       0.00       0.00       0.00    1293.18       0.00    1293.18      484.95   498.34   1.000
  S15                      770.39       0.00       0.00       0.00     770.36       0.00     770.36      381.33   362.19   1.000
  S16                        0.00       0.00       0.00       0.00       0.00       0.00       0.00        0.00     0.00   0.000
  S17                     1186.94       0.00       0.00       0.00    1185.96       0.00    1185.96     5977.26  2762.19   0.999
  S18                      845.75       0.00       0.00       0.00     843.82       0.00     843.82    13821.87  5167.79   0.998
  S19                     1364.67       0.00       0.00       0.00    1365.98       0.00    1365.98      102.45   112.96   1.001
  S20                        0.00       0.00       0.00       0.00       0.00       0.00       0.00        0.00     0.00   0.000
  S21                     1369.60       0.00       0.00       0.00    1371.06       0.00    1371.06       82.26    92.06   1.001
  S22                       22.11       0.00       0.00       0.00      21.88       0.00      21.88       81.55    15.50   0.989
  S23                     1359.91       0.00       0.00       0.00    1361.72       0.00    1361.72       51.06    60.01   1.001
  S24                        0.00       0.00       0.00       0.00       0.00       0.00       0.00        0.00     0.00   0.000
  S25                        0.00       0.00       0.00       0.00       0.00       0.00       0.00        0.00     0.00   0.000
  
  
  ******************
  Node Depth Summary
  ******************
  
  ---------------------------------------------------------------------------------
                                 Average  Maximum  Maximum  Time of Max    Reported
                                   Depth    Depth      HGL   Occurrence   Max Depth
  Node                 Type       Meters   Meters   Meters  days hr:min      Meters
  ---------------------------------------------------------------------------------
  0                    JUNCTION     0.00     0.00  1872.50     0  00:00        0.00
  1                    JUNCTION     0.00     0.00  1680.00     0  00:00        0.00
  2                    JUNCTION     0.00     0.00  1762.50     0  00:00        0.00
  3                    JUNCTION     0.00     0.00  1432.50     0  00:00        0.00
  4                    JUNCTION     0.03     0.14  1955.14   259  03:03        0.14
  5                    JUNCTION     0.25     0.85  1818.35   254  20:43        0.79
  6                    JUNCTION     0.00     0.03  1927.53   259  03:00        0.03
  7                    JUNCTION     0.03     0.20  1762.70   262  21:01        0.20
  8                    JUNCTION     1.21    34.13  1686.63   311  23:37       27.20
  9                    JUNCTION     0.00     0.03  1707.53   254  20:43        0.03
  10                   JUNCTION     0.31     1.64  1654.14   254  20:49        1.59
  11                   JUNCTION     0.35     1.75  1379.25   259  03:06        1.74
  12                   JUNCTION     0.35     1.75  1379.25   259  03:07        1.74
  13                   JUNCTION     0.03     0.19  1680.19   262  21:00        0.19
  14                   JUNCTION     0.05     0.26  1542.76   262  21:05        0.26
  15                   JUNCTION     0.00     0.00  1570.00     0  00:00        0.00
  16                   JUNCTION     0.12     0.47  1130.47   262  21:13        0.47
  17                   JUNCTION    12.99    22.71  1125.21   259  03:08       22.66
  18                   JUNCTION    12.98    22.49  1124.99   259  03:06       22.43
  19                   JUNCTION    12.98    22.22  1124.72   259  03:07       22.18
  20                   JUNCTION    12.97    32.37  1134.87    61  03:28       22.17
  21                   JUNCTION    13.29    15.84  1035.84   268  12:39       15.33
  22                   OUTFALL      0.26     1.60  1121.60   259  03:07        1.59
  23                   OUTFALL      0.44     0.52  1080.52   259  03:07        0.52
  24                   OUTFALL      0.02     0.75  1035.75   282  22:34        0.41
  
  
  *******************
  Node Inflow Summary
  *******************
  
  -------------------------------------------------------------------------------------------------
                                  Maximum  Maximum                  Lateral       Total        Flow
                                  Lateral    Total  Time of Max      Inflow      Inflow     Balance
                                   Inflow   Inflow   Occurrence      Volume      Volume       Error
  Node                 Type           LPS      LPS  days hr:min    10^6 ltr    10^6 ltr     Percent
  -------------------------------------------------------------------------------------------------
  0                    JUNCTION      0.00     0.00     0  00:00           0           0       0.000 ltr
  1                    JUNCTION      0.00     0.00     0  00:00           0           0       0.000 ltr
  2                    JUNCTION      0.00     0.00     0  00:00           0           0       0.000 ltr
  3                    JUNCTION      0.00     0.00     0  00:00           0           0       0.000 ltr
  4                    JUNCTION    263.34   263.34   259  03:00         371         371       0.021
  5                    JUNCTION     88.54 21989.24   254  20:43         108    2.09e+04     -10.135
  6                    JUNCTION    199.49   199.49   259  03:00         268         268       0.000
  7                    JUNCTION    467.05   467.05   262  21:00         499         499       0.008
  8                    JUNCTION    615.26 35830.85   262  21:00         843    7.51e+03     -58.017
  9                    JUNCTION    252.18   252.18   262  21:00         241         241       0.000
  10                   JUNCTION     83.42 43193.75   254  20:44        87.6    4.12e+04      -0.112
  11                   JUNCTION    210.79  5230.16   254  20:52         247         527       0.061
  12                   JUNCTION    311.46 37384.07   254  20:50         382    4.22e+04       0.001
  13                   JUNCTION    498.34   498.34   262  21:00         485         485      -0.013
  14                   JUNCTION    362.19   858.60   262  21:00         381         866      -0.039
  15                   JUNCTION      0.00     0.00     0  00:00           0           0       0.000 ltr
  16                   JUNCTION   2762.29  3374.94   262  21:00    5.98e+03    6.84e+03       0.006
  17                   JUNCTION   5167.83346300.39    61  03:29    1.38e+04    5.62e+04      -0.396
  18                   JUNCTION    112.96486619.55    66  09:14         102     2.9e+04      -1.136
  19                   JUNCTION      0.00142156.14    61  03:26           0    6.08e+04       2.497
  20                   JUNCTION     92.06116412.12    61  03:26        82.3    1.68e+04      -0.733
  21                   JUNCTION     15.50  1824.32   262  21:13        81.5    3.83e+03     292.916
  22                   OUTFALL      60.01 39921.84   259  03:07        51.1     4.2e+04       0.000
  23                   OUTFALL       0.00   820.78   259  03:07           0    1.69e+04       0.000
  24                   OUTFALL       0.00 11209.88   282  22:34           0    1.01e+03       0.000
  
  
  **********************
  Node Surcharge Summary
  **********************
  
  Surcharging occurs when water rises above the top of the highest conduit.
  ---------------------------------------------------------------------
                                               Max. Height   Min. Depth
                                   Hours       Above Crown    Below Rim
  Node                 Type      Surcharged         Meters       Meters
  ---------------------------------------------------------------------
  8                    JUNCTION       41.36         30.126        0.000
  17                   JUNCTION     5662.21         18.711        0.000
  18                   JUNCTION     5662.18         18.487        0.000
  19                   JUNCTION     5662.04         18.215        0.000
  20                   JUNCTION     5661.46         28.367        0.000
  21                   JUNCTION     6709.74         11.835        0.000
  
  
  *********************
  Node Flooding Summary
  *********************
  
  No nodes were flooded.
  
  
  ***********************
  Outfall Loading Summary
  ***********************
  
  -----------------------------------------------------------
                         Flow       Avg       Max       Total
                         Freq      Flow      Flow      Volume
  Outfall Node           Pcnt       LPS       LPS    10^6 ltr
  -----------------------------------------------------------
  22                    82.06   2736.36  39921.84   42016.914
  23                    99.50    634.87    820.78   16934.572
  24                    86.56     73.17  11209.88    1012.087
  -----------------------------------------------------------
  System                89.37   3444.40  11209.88   59963.572
  
  
  ********************
  Link Flow Summary
  ********************
  
  -----------------------------------------------------------------------------
                                 Maximum  Time of Max   Maximum    Max/    Max/
                                  |Flow|   Occurrence   |Veloc|    Full    Full
  Link                 Type          LPS  days hr:min     m/sec    Flow   Depth
  -----------------------------------------------------------------------------
  0                    CONDUIT      0.00     0  00:00      0.00    0.00    0.00
  1                    CONDUIT      0.00     0  00:00      0.00    0.00    0.22
  2                    CONDUIT      0.00     0  00:00      0.00    0.00    0.00
  3                    CONDUIT      0.00     0  00:00      0.00    0.00    0.22
  4                    CONDUIT   5049.47   254  20:52      1.19    8.20    0.44
  5                    CONDUIT    262.19   259  03:03      0.68    0.00    0.12
  6                    CONDUIT   9390.15   254  20:44      4.40    0.10    0.31
  7                    CONDUIT  21705.22   254  20:43     30.85    0.00    0.11
  8                    CONDUIT  33744.06   254  20:44      3.81  270.44    0.71
  9                    CONDUIT  37117.94   254  20:50      8.02    0.36    0.41
  10                   CONDUIT    464.08   262  21:01      0.07    0.00    0.52
  11                   CONDUIT  34752.35   262  21:00      6.59    0.00    0.50
  12                   CONDUIT  34705.79   259  03:07      7.42    0.41    0.72
  13                   CONDUIT 345941.85    61  03:29     27.53  561.83    1.00
  14                   CONDUIT 163336.63    61  03:26     13.00  315.46    1.00
  15                   CONDUIT    496.82   262  21:01      1.77    0.00    0.06
  16                   CONDUIT    848.22   262  21:05      1.50    0.01    0.09
  17                   CONDUIT      0.00     0  00:00      0.00    0.00    0.03
  18                   CONDUIT   1531.08   262  21:13      0.21    0.03    0.56
  19                   CONDUIT   1812.26   262  21:13      0.25    0.03    0.56
  20                   CONDUIT 254286.29    61  03:26     20.24  412.98    1.00
  21                   CONDUIT 116412.06    61  03:26     10.11  327.46    1.00
  22                   CONDUIT  39865.01   259  03:07      4.25    0.34    0.70
  23                   CONDUIT    820.78   259  03:07      1.28    1.28    0.76
  24                   CONDUIT  11209.88   282  22:34      1.78    0.08    0.66
  
  
  ***************************
  Flow Classification Summary
  ***************************
  
  -------------------------------------------------------------------------------------
                      Adjusted    ---------- Fraction of Time in Flow Class ---------- 
                       /Actual         Up    Down  Sub   Sup   Up    Down  Norm  Inlet 
  Conduit               Length    Dry  Dry   Dry   Crit  Crit  Crit  Crit  Ltd   Ctrl  
  -------------------------------------------------------------------------------------
  0                       1.00   1.00  0.00  0.00  0.00  0.00  0.00  0.00  0.00  0.00
  1                       1.00   0.00  1.00  0.00  0.00  0.00  0.00  0.00  0.00  0.00
  2                       1.00   1.00  0.00  0.00  0.00  0.00  0.00  0.00  0.00  0.00
  3                       1.00   0.00  1.00  0.00  0.00  0.00  0.00  0.00  0.00  0.00
  4                       1.00   0.00  0.00  0.00  1.00  0.00  0.00  0.00  0.00  0.00
  5                       1.00   0.00  0.00  0.00  1.00  0.00  0.00  0.00  0.99  0.00
  6                       1.00   0.00  0.00  0.00  0.05  0.95  0.00  0.00  0.93  0.00
  7                       1.00   0.00  0.61  0.00  0.38  0.00  0.00  0.00  0.98  0.00
  8                       1.00   0.00  0.00  0.00  1.00  0.00  0.00  0.00  0.00  0.00
  9                       1.00   0.00  0.00  0.00  0.00  1.00  0.00  0.00  0.99  0.00
  10                      1.00   0.00  0.00  0.00  0.99  0.00  0.00  0.00  0.99  0.00
  11                      1.00   0.00  0.73  0.00  0.26  0.00  0.00  0.00  0.99  0.00
  12                      1.00   0.00  0.00  0.00  1.00  0.00  0.00  0.00  0.99  0.00
  13                      1.00   0.00  0.00  0.00  1.00  0.00  0.00  0.00  0.00  0.00
  14                      1.00   0.00  0.00  0.00  1.00  0.00  0.00  0.00  0.00  0.00
  15                      1.00   0.00  0.01  0.00  0.63  0.36  0.00  0.00  0.99  0.00
  16                      1.00   0.00  0.00  0.00  0.99  0.01  0.00  0.00  0.99  0.00
  17                      1.00   0.00  0.99  0.00  0.00  0.00  0.00  0.00  0.00  0.00
  18                      1.00   0.00  0.00  0.00  1.00  0.00  0.00  0.00  0.99  0.00
  19                      1.00   0.00  0.00  0.00  1.00  0.00  0.00  0.00  0.99  0.00
  20                      1.00   0.00  0.00  0.00  1.00  0.00  0.00  0.00  0.00  0.00
  21                      1.00   0.00  0.00  0.00  1.00  0.00  0.00  0.00  0.00  0.00
  22                      1.00   0.00  0.33  0.00  0.66  0.00  0.00  0.00  0.39  0.00
  23                      1.00   0.00  0.00  0.00  1.00  0.00  0.00  0.00  0.00  0.00
  24                      1.00   0.00  0.13  0.00  0.87  0.00  0.00  0.00  0.64  0.00
  
  
  *************************
  Conduit Surcharge Summary
  *************************
  
  ----------------------------------------------------------------------------
                                                           Hours        Hours 
                         --------- Hours Full --------   Above Full   Capacity
  Conduit                Both Ends  Upstream  Dnstream   Normal Flow   Limited
  ----------------------------------------------------------------------------
  4                           0.01      0.01      0.01     14.36         0.01
  8                           0.01      0.01     40.91   5240.00         0.01
  10                          0.01      0.01     40.91      0.01         0.01
  11                          0.01      0.01     41.06      0.01         0.01
  12                          0.01      0.01   5661.98      0.01         0.01
  13                       5661.14   5661.97   5661.35   3518.75      2403.70
  14                       5659.64   5661.91   5660.22   4020.14      2532.41
  18                          0.01      0.01   5661.31      0.01         0.01
  19                          0.01      0.01   6709.74      0.01         0.01
  20                       5659.15   5661.43   5660.20   3830.45      2463.07
  21                       5657.99   5660.20   5659.98   6072.60      3937.34
  22                          0.01      0.01   6476.56      0.01         0.01
  23                          0.01   5936.50      0.01   5031.34         0.01
  24                          0.01      0.01   6602.77      0.01         0.01
  

  Analysis begun on:  Tue Apr 14 21:54:38 2020
  Analysis ended on:  Tue Apr 14 21:56:39 2020
  Total elapsed time: 00:02:01