
  EPA STORM WATER MANAGEMENT MODEL - VERSION 5.1 (Build 5.1.013)
  --------------------------------------------------------------

  Template input file for Gottesacker karst system.  
  Based on input files created by Zhao Chen. 
  Modified by Chloe Fandel: 
  
  WARNING 04: minimum elevation drop used for Conduit 1
  WARNING 04: minimum elevation drop used for Conduit 4
  WARNING 04: minimum elevation drop used for Conduit 5
  WARNING 04: minimum elevation drop used for Conduit 16
  WARNING 04: minimum elevation drop used for Conduit 17
  WARNING 04: minimum elevation drop used for Conduit 19
  WARNING 04: minimum elevation drop used for Conduit 20
  WARNING 04: minimum elevation drop used for Conduit 21
  WARNING 04: minimum elevation drop used for Conduit 22
  WARNING 04: minimum elevation drop used for Conduit 23
  WARNING 04: minimum elevation drop used for Conduit 24
  WARNING 04: minimum elevation drop used for Conduit 27
  WARNING 04: minimum elevation drop used for Conduit 30
  WARNING 04: minimum elevation drop used for Conduit 31
  WARNING 04: minimum elevation drop used for Conduit 32
  WARNING 04: minimum elevation drop used for Conduit 34
  WARNING 04: minimum elevation drop used for Conduit 36
  WARNING 04: minimum elevation drop used for Conduit 37
  WARNING 08: elevation drop exceeds length for Conduit 38
  WARNING 04: minimum elevation drop used for Conduit 39
  WARNING 04: minimum elevation drop used for Conduit 43
  WARNING 08: elevation drop exceeds length for Conduit 46
  WARNING 04: minimum elevation drop used for Conduit 47
  WARNING 04: minimum elevation drop used for Conduit 50
  WARNING 04: minimum elevation drop used for Conduit 51
  WARNING 08: elevation drop exceeds length for Conduit 52
  WARNING 04: minimum elevation drop used for Conduit 53
  WARNING 04: minimum elevation drop used for Conduit 54
  WARNING 08: elevation drop exceeds length for Conduit 55
  WARNING 04: minimum elevation drop used for Conduit 57
  WARNING 08: elevation drop exceeds length for Conduit 60
  WARNING 04: minimum elevation drop used for Conduit 61
  WARNING 04: minimum elevation drop used for Conduit 62
  WARNING 04: minimum elevation drop used for Conduit 63
  WARNING 04: minimum elevation drop used for Conduit 64
  WARNING 04: minimum elevation drop used for Conduit 65
  WARNING 04: minimum elevation drop used for Conduit 66
  WARNING 04: minimum elevation drop used for Conduit 67
  WARNING 04: minimum elevation drop used for Conduit 68
  WARNING 04: minimum elevation drop used for Conduit 69
  WARNING 08: elevation drop exceeds length for Conduit 70
  WARNING 04: minimum elevation drop used for Conduit 72
  WARNING 04: minimum elevation drop used for Conduit 73
  WARNING 08: elevation drop exceeds length for Conduit 75
  WARNING 04: minimum elevation drop used for Conduit 76
  WARNING 04: minimum elevation drop used for Conduit 77
  WARNING 08: elevation drop exceeds length for Conduit 80
  WARNING 04: minimum elevation drop used for Conduit 82
  WARNING 04: minimum elevation drop used for Conduit 83
  WARNING 08: elevation drop exceeds length for Conduit 87
  WARNING 04: minimum elevation drop used for Conduit 88
  WARNING 04: minimum elevation drop used for Conduit 89
  WARNING 04: minimum elevation drop used for Conduit 90
  WARNING 04: minimum elevation drop used for Conduit 91
  WARNING 04: minimum elevation drop used for Conduit 92
  WARNING 04: minimum elevation drop used for Conduit 93
  WARNING 04: minimum elevation drop used for Conduit 94
  WARNING 04: minimum elevation drop used for Conduit 95
  WARNING 04: minimum elevation drop used for Conduit 96
  WARNING 08: elevation drop exceeds length for Conduit 97
  WARNING 04: minimum elevation drop used for Conduit 98
  WARNING 08: elevation drop exceeds length for Conduit 99
  WARNING 04: minimum elevation drop used for Conduit 100
  WARNING 04: minimum elevation drop used for Conduit 101
  WARNING 04: minimum elevation drop used for Conduit 102
  WARNING 04: minimum elevation drop used for Conduit 103
  WARNING 04: minimum elevation drop used for Conduit 104
  WARNING 04: minimum elevation drop used for Conduit 105
  WARNING 04: minimum elevation drop used for Conduit 106
  WARNING 04: minimum elevation drop used for Conduit 107
  WARNING 04: minimum elevation drop used for Conduit 108
  WARNING 08: elevation drop exceeds length for Conduit 109
  WARNING 04: minimum elevation drop used for Conduit 110
  WARNING 04: minimum elevation drop used for Conduit 111
  WARNING 08: elevation drop exceeds length for Conduit 112
  WARNING 04: minimum elevation drop used for Conduit 116
  WARNING 04: minimum elevation drop used for Conduit 117
  WARNING 04: minimum elevation drop used for Conduit 118
  WARNING 04: minimum elevation drop used for Conduit 119
  WARNING 08: elevation drop exceeds length for Conduit 120
  WARNING 04: minimum elevation drop used for Conduit 121
  WARNING 04: minimum elevation drop used for Conduit 122
  WARNING 04: minimum elevation drop used for Conduit 123
  WARNING 08: elevation drop exceeds length for Conduit 124
  WARNING 04: minimum elevation drop used for Conduit 126
  WARNING 08: elevation drop exceeds length for Conduit 127
  WARNING 04: minimum elevation drop used for Conduit 129
  WARNING 04: minimum elevation drop used for Conduit 130
  WARNING 08: elevation drop exceeds length for Conduit 131
  WARNING 04: minimum elevation drop used for Conduit 132
  WARNING 04: minimum elevation drop used for Conduit 133
  WARNING 08: elevation drop exceeds length for Conduit 134
  WARNING 04: minimum elevation drop used for Conduit 135
  WARNING 04: minimum elevation drop used for Conduit 137
  WARNING 08: elevation drop exceeds length for Conduit 138
  WARNING 04: minimum elevation drop used for Conduit 139
  WARNING 04: minimum elevation drop used for Conduit 143
  WARNING 04: minimum elevation drop used for Conduit 144
  WARNING 04: minimum elevation drop used for Conduit 145
  WARNING 04: minimum elevation drop used for Conduit 146
  WARNING 08: elevation drop exceeds length for Conduit 147
  WARNING 04: minimum elevation drop used for Conduit 148
  WARNING 04: minimum elevation drop used for Conduit 149
  WARNING 04: minimum elevation drop used for Conduit 151
  WARNING 04: minimum elevation drop used for Conduit 153
  WARNING 04: minimum elevation drop used for Conduit 155
  WARNING 08: elevation drop exceeds length for Conduit 156
  WARNING 04: minimum elevation drop used for Conduit 157
  WARNING 04: minimum elevation drop used for Conduit 158
  WARNING 04: minimum elevation drop used for Conduit 160
  WARNING 04: minimum elevation drop used for Conduit 163
  WARNING 04: minimum elevation drop used for Conduit 165
  WARNING 04: minimum elevation drop used for Conduit 166
  WARNING 08: elevation drop exceeds length for Conduit 167
  WARNING 08: elevation drop exceeds length for Conduit 169
  WARNING 04: minimum elevation drop used for Conduit 170
  WARNING 04: minimum elevation drop used for Conduit 171
  WARNING 08: elevation drop exceeds length for Conduit 172
  WARNING 04: minimum elevation drop used for Conduit 174
  WARNING 04: minimum elevation drop used for Conduit 176
  WARNING 04: minimum elevation drop used for Conduit 178
  WARNING 04: minimum elevation drop used for Conduit 179
  WARNING 04: minimum elevation drop used for Conduit 181
  WARNING 04: minimum elevation drop used for Conduit 182
  WARNING 04: minimum elevation drop used for Conduit 184
  WARNING 04: minimum elevation drop used for Conduit 186
  WARNING 04: minimum elevation drop used for Conduit 192
  WARNING 04: minimum elevation drop used for Conduit 194
  WARNING 04: minimum elevation drop used for Conduit 197
  WARNING 04: minimum elevation drop used for Conduit 198
  WARNING 04: minimum elevation drop used for Conduit 199
  WARNING 04: minimum elevation drop used for Conduit 200
  WARNING 04: minimum elevation drop used for Conduit 201
  WARNING 04: minimum elevation drop used for Conduit 202
  WARNING 04: minimum elevation drop used for Conduit 203
  WARNING 04: minimum elevation drop used for Conduit 204
  WARNING 08: elevation drop exceeds length for Conduit 205
  WARNING 04: minimum elevation drop used for Conduit 206
  WARNING 04: minimum elevation drop used for Conduit 207
  WARNING 04: minimum elevation drop used for Conduit 208
  WARNING 04: minimum elevation drop used for Conduit 209
  WARNING 08: elevation drop exceeds length for Conduit 212
  WARNING 04: minimum elevation drop used for Conduit 213
  WARNING 04: minimum elevation drop used for Conduit 219
  WARNING 04: minimum elevation drop used for Conduit 220
  WARNING 04: minimum elevation drop used for Conduit 223
  WARNING 04: minimum elevation drop used for Conduit 224
  WARNING 04: minimum elevation drop used for Conduit 225
  WARNING 04: minimum elevation drop used for Conduit 226
  WARNING 04: minimum elevation drop used for Conduit 227
  WARNING 04: minimum elevation drop used for Conduit 228
  WARNING 04: minimum elevation drop used for Conduit 229
  WARNING 04: minimum elevation drop used for Conduit 231
  WARNING 04: minimum elevation drop used for Conduit 234
  WARNING 04: minimum elevation drop used for Conduit 237
  WARNING 04: minimum elevation drop used for Conduit 240
  WARNING 04: minimum elevation drop used for Conduit 241
  WARNING 04: minimum elevation drop used for Conduit 242
  WARNING 04: minimum elevation drop used for Conduit 243
  WARNING 04: minimum elevation drop used for Conduit 244
  WARNING 04: minimum elevation drop used for Conduit 247
  WARNING 04: minimum elevation drop used for Conduit 249
  WARNING 08: elevation drop exceeds length for Conduit 250
  WARNING 04: minimum elevation drop used for Conduit 251
  WARNING 04: minimum elevation drop used for Conduit 253
  WARNING 08: elevation drop exceeds length for Conduit 254
  WARNING 04: minimum elevation drop used for Conduit 256
  WARNING 04: minimum elevation drop used for Conduit 257
  WARNING 04: minimum elevation drop used for Conduit 258
  WARNING 04: minimum elevation drop used for Conduit 259
  WARNING 04: minimum elevation drop used for Conduit 260
  WARNING 04: minimum elevation drop used for Conduit 261
  WARNING 04: minimum elevation drop used for Conduit 262
  WARNING 04: minimum elevation drop used for Conduit 263
  WARNING 04: minimum elevation drop used for Conduit 264
  WARNING 04: minimum elevation drop used for Conduit 266
  WARNING 04: minimum elevation drop used for Conduit 267
  WARNING 04: minimum elevation drop used for Conduit 268
  WARNING 04: minimum elevation drop used for Conduit 269
  WARNING 04: minimum elevation drop used for Conduit 270
  WARNING 04: minimum elevation drop used for Conduit 271
  WARNING 04: minimum elevation drop used for Conduit 273
  WARNING 04: minimum elevation drop used for Conduit 275
  WARNING 04: minimum elevation drop used for Conduit 277
  WARNING 04: minimum elevation drop used for Conduit 279
  WARNING 04: minimum elevation drop used for Conduit 280
  WARNING 04: minimum elevation drop used for Conduit 281
  WARNING 04: minimum elevation drop used for Conduit 282
  WARNING 04: minimum elevation drop used for Conduit 284
  WARNING 04: minimum elevation drop used for Conduit 285
  WARNING 04: minimum elevation drop used for Conduit 286
  WARNING 04: minimum elevation drop used for Conduit 287
  WARNING 04: minimum elevation drop used for Conduit 288
  WARNING 04: minimum elevation drop used for Conduit 289
  WARNING 04: minimum elevation drop used for Conduit 290
  WARNING 04: minimum elevation drop used for Conduit 295
  WARNING 04: minimum elevation drop used for Conduit 297
  WARNING 04: minimum elevation drop used for Conduit 298
  WARNING 04: minimum elevation drop used for Conduit 299
  WARNING 04: minimum elevation drop used for Conduit 300
  WARNING 04: minimum elevation drop used for Conduit 301
  WARNING 04: minimum elevation drop used for Conduit 302
  WARNING 08: elevation drop exceeds length for Conduit 303
  WARNING 04: minimum elevation drop used for Conduit 304
  WARNING 04: minimum elevation drop used for Conduit 308
  WARNING 04: minimum elevation drop used for Conduit 309
  WARNING 04: minimum elevation drop used for Conduit 310
  WARNING 04: minimum elevation drop used for Conduit 311
  WARNING 04: minimum elevation drop used for Conduit 312
  WARNING 04: minimum elevation drop used for Conduit 317
  WARNING 04: minimum elevation drop used for Conduit 318
  WARNING 04: minimum elevation drop used for Conduit 319
  WARNING 04: minimum elevation drop used for Conduit 322
  WARNING 04: minimum elevation drop used for Conduit 324
  WARNING 04: minimum elevation drop used for Conduit 325
  WARNING 04: minimum elevation drop used for Conduit 326
  WARNING 04: minimum elevation drop used for Conduit 330
  WARNING 04: minimum elevation drop used for Conduit 337
  WARNING 08: elevation drop exceeds length for Conduit 338
  WARNING 04: minimum elevation drop used for Conduit 339
  WARNING 04: minimum elevation drop used for Conduit 341
  WARNING 04: minimum elevation drop used for Conduit 345
  WARNING 04: minimum elevation drop used for Conduit 346
  WARNING 04: minimum elevation drop used for Conduit 347
  WARNING 04: minimum elevation drop used for Conduit 348
  WARNING 04: minimum elevation drop used for Conduit 349
  WARNING 04: minimum elevation drop used for Conduit 350
  WARNING 04: minimum elevation drop used for Conduit 351
  WARNING 04: minimum elevation drop used for Conduit 352
  WARNING 04: minimum elevation drop used for Conduit 354
  WARNING 04: minimum elevation drop used for Conduit 355
  WARNING 04: minimum elevation drop used for Conduit 357
  WARNING 04: minimum elevation drop used for Conduit 358
  WARNING 04: minimum elevation drop used for Conduit 359
  WARNING 04: minimum elevation drop used for Conduit 366
  
  *********************************************************
  NOTE: The summary statistics displayed in this report are
  based on results found at every computational time step,  
  not just on results from each reporting time step.
  *********************************************************
  
  ****************
  Analysis Options
  ****************
  Flow Units ............... LPS
  Process Models:
    Rainfall/Runoff ........ YES
    RDII ................... NO
    Snowmelt ............... NO
    Groundwater ............ NO
    Flow Routing ........... YES
    Ponding Allowed ........ NO
    Water Quality .......... NO
  Infiltration Method ...... HORTON
  Flow Routing Method ...... DYNWAVE
  Surcharge Method ......... EXTRAN
  Starting Date ............ 11/14/2013 00:00:00
  Ending Date .............. 10/11/2014 00:00:00
  Antecedent Dry Days ...... 0.0
  Report Time Step ......... 01:00:00
  Wet Time Step ............ 00:30:00
  Dry Time Step ............ 01:00:00
  Routing Time Step ........ 30.00 sec
  Variable Time Step ....... YES
  Maximum Trials ........... 8
  Number of Threads ........ 4
  Head Tolerance ........... 0.001524 m
  
  
  **************************        Volume         Depth
  Runoff Quantity Continuity     hectare-m            mm
  **************************     ---------       -------
  Total Precipitation ......      2343.488       713.065
  Evaporation Loss .........         0.000         0.000
  Infiltration Loss ........         0.000         0.000
  Surface Runoff ...........      2343.606       713.101
  Final Storage ............         0.875         0.266
  Continuity Error (%) .....        -0.042
  
  
  **************************        Volume        Volume
  Flow Routing Continuity        hectare-m      10^6 ltr
  **************************     ---------     ---------
  Dry Weather Inflow .......         0.000         0.000
  Wet Weather Inflow .......      2343.588     23436.127
  Groundwater Inflow .......         0.000         0.000
  RDII Inflow ..............         0.000         0.000
  External Inflow ..........         5.425        54.248
  External Outflow .........      3039.038     30390.692
  Flooding Loss ............        63.056       630.562
  Evaporation Loss .........         0.000         0.000
  Exfiltration Loss ........         0.000         0.000
  Initial Stored Volume ....         0.000         0.000
  Final Stored Volume ......         1.886        18.863
  Continuity Error (%) .....       -32.140
  
  
  *************************
  Highest Continuity Errors
  *************************
  Node 20 (-710.28%)
  Node 98 (-236.47%)
  Node 150 (-61.53%)
  Node 187 (-54.17%)
  Node 186 (-15.11%)
  
  
  ***************************
  Time-Step Critical Elements
  ***************************
  Link 210 (54.95%)
  Link 236 (12.30%)
  Link 229 (11.73%)
  Link 228 (3.01%)
  Link 129 (1.41%)
  
  
  ********************************
  Highest Flow Instability Indexes
  ********************************
  Link 43 (141)
  Link 26 (141)
  Link 149 (130)
  Link 18 (126)
  Link 255 (113)
  
  
  *************************
  Routing Time Step Summary
  *************************
  Minimum Time Step           :     0.50 sec
  Average Time Step           :     8.77 sec
  Maximum Time Step           :    30.00 sec
  Percent in Steady State     :     0.30
  Average Iterations per Step :     6.59
  Percent Not Converging      :    68.21
  
  
  ***************************
  Subcatchment Runoff Summary
  ***************************
  
  ------------------------------------------------------------------------------------------------------------------------------
                            Total      Total      Total      Total     Imperv       Perv      Total       Total     Peak  Runoff
                           Precip      Runon       Evap      Infil     Runoff     Runoff     Runoff      Runoff   Runoff   Coeff
  Subcatchment                 mm         mm         mm         mm         mm         mm         mm    10^6 ltr      LPS
  ------------------------------------------------------------------------------------------------------------------------------
  S1                         0.00       0.00       0.00       0.00       0.00       0.00       0.00        0.00     0.00   0.000
  S2                         0.00       0.00       0.00       0.00       0.00       0.00       0.00        0.00     0.00   0.000
  S3                         0.00       0.00       0.00       0.00       0.00       0.00       0.00        0.00     0.00   0.000
  S4                         0.00       0.00       0.00       0.00       0.00       0.00       0.00        0.00     0.00   0.000
  S5                      1061.54       0.00       0.00       0.00    1061.69       0.00    1061.69      368.94   262.37   1.000
  S6                      1053.22       0.00       0.00       0.00    1053.55       0.00    1053.55      208.08   159.86   1.000
  S7                         0.00       0.00       0.00       0.00       0.00       0.00       0.00        0.00     0.00   0.000
  S8                       216.07       0.00       0.00       0.00     215.42       0.00     215.42      966.17   326.33   0.997
  S9                      1015.28       0.00       0.00       0.00    1015.29       0.00    1015.29      487.34   328.42   1.000
  S10                        0.00       0.00       0.00       0.00       0.00       0.00       0.00        0.00     0.00   0.000
  S11                     1008.24       0.00       0.00       0.00    1008.64       0.00    1008.64      136.17   111.29   1.000
  S12                     1025.22       0.00       0.00       0.00    1025.31       0.00    1025.31      371.68   262.35   1.000
  S13                     1385.10       0.00       0.00       0.00    1385.52       0.00    1385.52      498.79   466.98   1.000
  S14                      618.94       0.00       0.00       0.00     618.53       0.00     618.53      853.57   419.88   0.999
  S15                     1125.81       0.00       0.00       0.00    1125.72       0.00    1125.72      790.82   518.11   1.000
  S16                      668.19       0.00       0.00       0.00     668.21       0.00     668.21      190.44   131.32   1.000
  S17                     1563.56       0.00       0.00       0.00    1564.70       0.00    1564.70      148.65   135.75   1.001
  S18                     1033.18       0.00       0.00       0.00    1033.25       0.00    1033.25      322.89   232.04   1.000
  S19                     1020.98       0.00       0.00       0.00    1021.25       0.00    1021.25      194.04   151.11   1.000
  S20                     1003.45       0.00       0.00       0.00    1004.15       0.00    1004.15       60.25    53.05   1.001
  S22                     1036.22       0.00       0.00       0.00    1036.14       0.00    1036.14      841.87   614.86   1.000
  S25                        0.00       0.00       0.00       0.00       0.00       0.00       0.00        0.00     0.00   0.000
  S26                        0.00       0.00       0.00       0.00       0.00       0.00       0.00        0.00     0.00   0.000
  S27                     1577.49       0.00       0.00       0.00    1578.43       0.00    1578.43      209.14   181.93   1.001
  S28                     1605.11       0.00       0.00       0.00    1605.82       0.00    1605.82      321.17   267.68   1.000
  S29                     1002.11       0.00       0.00       0.00    1002.34       0.00    1002.34      218.01   164.26   1.000
  S30                        0.00       0.00       0.00       0.00       0.00       0.00       0.00        0.00     0.00   0.000
  S31                        0.00       0.00       0.00       0.00       0.00       0.00       0.00        0.00     0.00   0.000
  S32                     1103.74       0.00       0.00       0.00    1103.95       0.00    1103.95      314.63   241.36   1.000
  S33                        0.00       0.00       0.00       0.00       0.00       0.00       0.00        0.00     0.00   0.000
  S34                        0.00       0.00       0.00       0.00       0.00       0.00       0.00        0.00     0.00   0.000
  S35                     1491.27       0.00       0.00       0.00    1494.19       0.00    1494.19       18.68    37.93   1.002
  S36                     1360.47       0.00       0.00       0.00    1360.96       0.00    1360.96      299.41   247.73   1.000
  S37                     1618.01       0.00       0.00       0.00    1619.68       0.00    1619.68       72.89    69.01   1.001
  S38                     1533.04       0.00       0.00       0.00    1533.29       0.00    1533.29      858.65   654.39   1.000
  S39                      951.72       0.00       0.00       0.00     952.92       0.00     952.92       19.06    28.41   1.001
  S40                      945.64       0.00       0.00       0.00     946.59       0.00     946.59       30.76    37.19   1.001
  S41                     1487.62       0.00       0.00       0.00    1489.16       0.00    1489.16       85.63   127.32   1.001
  S42                     1569.01       0.00       0.00       0.00    1570.32       0.00    1570.32      113.85   106.11   1.001
  S43                        0.00       0.00       0.00       0.00       0.00       0.00       0.00        0.00     0.00   0.000
  S44                      950.09       0.00       0.00       0.00     951.01       0.00     951.01       33.29    41.86   1.001
  S45                        0.00       0.00       0.00       0.00       0.00       0.00       0.00        0.00     0.00   0.000
  S46                        0.00       0.00       0.00       0.00       0.00       0.00       0.00        0.00     0.00   0.000
  S47                     1552.78       0.00       0.00       0.00    1554.75       0.00    1554.75       54.42    81.23   1.001
  S48                     1150.07       0.00       0.00       0.00    1149.95       0.00    1149.95     1129.83   806.26   1.000
  S49                      399.10       0.00       0.00       0.00     399.20       0.00     399.20       27.94    21.08   1.000
  S52                     1517.43       0.00       0.00       0.00    1517.72       0.00    1517.72      774.04   613.88   1.000
  S53                     1468.95       0.00       0.00       0.00    1470.81       0.00    1470.81       51.48    71.41   1.001
  S56                     1473.00       0.00       0.00       0.00    1474.40       0.00    1474.40       99.52   136.46   1.001
  S57                        0.00       0.00       0.00       0.00       0.00       0.00       0.00        0.00     0.00   0.000
  S58                        0.00       0.00       0.00       0.00       0.00       0.00       0.00        0.00     0.00   0.000
  S59                        0.00       0.00       0.00       0.00       0.00       0.00       0.00        0.00     0.00   0.000
  S60                     1504.70       0.00       0.00       0.00    1506.45       0.00    1506.45       75.32   138.91   1.001
  S61                        0.00       0.00       0.00       0.00       0.00       0.00       0.00        0.00     0.00   0.000
  S62                      939.58       0.00       0.00       0.00     940.44       0.00     940.44       37.62    41.22   1.001
  S63                        0.00       0.00       0.00       0.00       0.00       0.00       0.00        0.00     0.00   0.000
  S64                     1484.89       0.00       0.00       0.00    1486.70       0.00    1486.70       74.34   156.77   1.001
  S65                        0.00       0.00       0.00       0.00       0.00       0.00       0.00        0.00     0.00   0.000
  S66                        0.00       0.00       0.00       0.00       0.00       0.00       0.00        0.00     0.00   0.000
  S67                     1485.51       0.00       0.00       0.00    1486.30       0.00    1486.30      282.40   314.29   1.001
  S68                      965.66       0.00       0.00       0.00     966.73       0.00     966.73       26.59    41.15   1.001
  S69                        0.00       0.00       0.00       0.00       0.00       0.00       0.00        0.00     0.00   0.000
  S71                        0.00       0.00       0.00       0.00       0.00       0.00       0.00        0.00     0.00   0.000
  S72                     1474.54       0.00       0.00       0.00    1476.95       0.00    1476.95       36.92    88.50   1.002
  S73                        0.00       0.00       0.00       0.00       0.00       0.00       0.00        0.00     0.00   0.000
  S74                        0.00       0.00       0.00       0.00       0.00       0.00       0.00        0.00     0.00   0.000
  S75                      942.01       0.00       0.00       0.00     942.06       0.00     942.06      435.71   351.02   1.000
  S76                        0.00       0.00       0.00       0.00       0.00       0.00       0.00        0.00     0.00   0.000
  S77                     1455.19       0.00       0.00       0.00    1455.74       0.00    1455.74      444.00   473.84   1.000
  S78                        0.00       0.00       0.00       0.00       0.00       0.00       0.00        0.00     0.00   0.000
  S79                     1463.87       0.00       0.00       0.00    1465.07       0.00    1465.07      135.52   170.59   1.001
  S80                        0.00       0.00       0.00       0.00       0.00       0.00       0.00        0.00     0.00   0.000
  S81                     1241.24       0.00       0.00       0.00    1241.14       0.00    1241.14     1194.60   911.30   1.000
  S82                      922.29       0.00       0.00       0.00     922.77       0.00     922.77      103.81    92.49   1.001
  S83                        0.00       0.00       0.00       0.00       0.00       0.00       0.00        0.00     0.00   0.000
  S84                        0.00       0.00       0.00       0.00       0.00       0.00       0.00        0.00     0.00   0.000
  S85                        0.00       0.00       0.00       0.00       0.00       0.00       0.00        0.00     0.00   0.000
  S86                        0.00       0.00       0.00       0.00       0.00       0.00       0.00        0.00     0.00   0.000
  S92                        0.00       0.00       0.00       0.00       0.00       0.00       0.00        0.00     0.00   0.000
  S95                        0.00       0.00       0.00       0.00       0.00       0.00       0.00        0.00     0.00   0.000
  S96                        0.00       0.00       0.00       0.00       0.00       0.00       0.00        0.00     0.00   0.000
  S97                        0.00       0.00       0.00       0.00       0.00       0.00       0.00        0.00     0.00   0.000
  S99                      921.14       0.00       0.00       0.00     921.83       0.00     921.83       55.31    52.93   1.001
  S100                       0.00       0.00       0.00       0.00       0.00       0.00       0.00        0.00     0.00   0.000
  S101                    1586.10       0.00       0.00       0.00    1587.15       0.00    1587.15      198.39   191.87   1.001
  S102                    1436.94       0.00       0.00       0.00    1438.07       0.00    1438.07      143.81   153.40   1.001
  S103                       0.00       0.00       0.00       0.00       0.00       0.00       0.00        0.00     0.00   0.000
  S104                       0.00       0.00       0.00       0.00       0.00       0.00       0.00        0.00     0.00   0.000
  S105                     913.91       0.00       0.00       0.00     915.03       0.00     915.03       20.59    23.34   1.001
  S106                       0.00       0.00       0.00       0.00       0.00       0.00       0.00        0.00     0.00   0.000
  S107                    1465.45       0.00       0.00       0.00    1466.49       0.00    1466.49      179.65   219.28   1.001
  S108                       0.00       0.00       0.00       0.00       0.00       0.00       0.00        0.00     0.00   0.000
  S109                     929.29       0.00       0.00       0.00     929.88       0.00     929.88       74.39    70.65   1.001
  S110                       0.00       0.00       0.00       0.00       0.00       0.00       0.00        0.00     0.00   0.000
  S111                       0.00       0.00       0.00       0.00       0.00       0.00       0.00        0.00     0.00   0.000
  S112                     691.74       0.00       0.00       0.00     691.70       0.00     691.70      307.81   284.34   1.000
  S113                       0.00       0.00       0.00       0.00       0.00       0.00       0.00        0.00     0.00   0.000
  S114                       0.00       0.00       0.00       0.00       0.00       0.00       0.00        0.00     0.00   0.000
  S115                       0.00       0.00       0.00       0.00       0.00       0.00       0.00        0.00     0.00   0.000
  S117                       0.00       0.00       0.00       0.00       0.00       0.00       0.00        0.00     0.00   0.000
  S118                       0.00       0.00       0.00       0.00       0.00       0.00       0.00        0.00     0.00   0.000
  S119                    1437.64       0.00       0.00       0.00    1439.56       0.00    1439.56       46.79    62.72   1.001
  S120                    1450.27       0.00       0.00       0.00    1451.47       0.00    1451.47      127.00   130.09   1.001
  S121                     997.28       0.00       0.00       0.00     997.50       0.00     997.50      294.26   259.37   1.000
  S122                       0.00       0.00       0.00       0.00       0.00       0.00       0.00        0.00     0.00   0.000
  S123                       0.00       0.00       0.00       0.00       0.00       0.00       0.00        0.00     0.00   0.000
  S124                       0.00       0.00       0.00       0.00       0.00       0.00       0.00        0.00     0.00   0.000
  S125                       0.00       0.00       0.00       0.00       0.00       0.00       0.00        0.00     0.00   0.000
  S126                       0.00       0.00       0.00       0.00       0.00       0.00       0.00        0.00     0.00   0.000
  S127                    1470.47       0.00       0.00       0.00    1472.21       0.00    1472.21       66.25   115.80   1.001
  S128                       0.00       0.00       0.00       0.00       0.00       0.00       0.00        0.00     0.00   0.000
  S129                       0.00       0.00       0.00       0.00       0.00       0.00       0.00        0.00     0.00   0.000
  S130                       0.00       0.00       0.00       0.00       0.00       0.00       0.00        0.00     0.00   0.000
  S131                    1272.83       0.00       0.00       0.00    1272.46       0.00    1272.46     2198.18  1276.91   1.000
  S132                    1428.17       0.00       0.00       0.00    1430.30       0.00    1430.30       35.76    43.33   1.001
  S133                     910.45       0.00       0.00       0.00     911.03       0.00     911.03       75.16    71.35   1.001
  S134                     906.76       0.00       0.00       0.00     907.73       0.00     907.73       27.23    28.56   1.001
  S135                       0.00       0.00       0.00       0.00       0.00       0.00       0.00        0.00     0.00   0.000
  S136                       0.00       0.00       0.00       0.00       0.00       0.00       0.00        0.00     0.00   0.000
  S137                    1430.27       0.00       0.00       0.00    1430.76       0.00    1430.76      468.58   406.90   1.000
  S138                       0.00       0.00       0.00       0.00       0.00       0.00       0.00        0.00     0.00   0.000
  S139                       0.00       0.00       0.00       0.00       0.00       0.00       0.00        0.00     0.00   0.000
  S140                       0.00       0.00       0.00       0.00       0.00       0.00       0.00        0.00     0.00   0.000
  S141                       0.00       0.00       0.00       0.00       0.00       0.00       0.00        0.00     0.00   0.000
  S142                       0.00       0.00       0.00       0.00       0.00       0.00       0.00        0.00     0.00   0.000
  S143                       0.00       0.00       0.00       0.00       0.00       0.00       0.00        0.00     0.00   0.000
  S144                       0.00       0.00       0.00       0.00       0.00       0.00       0.00        0.00     0.00   0.000
  S145                    1502.98       0.00       0.00       0.00    1504.24       0.00    1504.24      135.38   180.32   1.001
  S146                       0.00       0.00       0.00       0.00       0.00       0.00       0.00        0.00     0.00   0.000
  S147                     202.41       0.00       0.00       0.00     202.33       0.00     202.33       41.98    27.16   1.000
  S148                       0.00       0.00       0.00       0.00       0.00       0.00       0.00        0.00     0.00   0.000
  S149                       0.00       0.00       0.00       0.00       0.00       0.00       0.00        0.00     0.00   0.000
  S150                       0.00       0.00       0.00       0.00       0.00       0.00       0.00        0.00     0.00   0.000
  S151                       0.00       0.00       0.00       0.00       0.00       0.00       0.00        0.00     0.00   0.000
  S152                       0.00       0.00       0.00       0.00       0.00       0.00       0.00        0.00     0.00   0.000
  S153                       0.00       0.00       0.00       0.00       0.00       0.00       0.00        0.00     0.00   0.000
  S154                     909.54       0.00       0.00       0.00     910.01       0.00     910.01      100.10    91.85   1.001
  S155                       0.00       0.00       0.00       0.00       0.00       0.00       0.00        0.00     0.00   0.000
  S156                       0.00       0.00       0.00       0.00       0.00       0.00       0.00        0.00     0.00   0.000
  S157                       0.00       0.00       0.00       0.00       0.00       0.00       0.00        0.00     0.00   0.000
  S158                       0.00       0.00       0.00       0.00       0.00       0.00       0.00        0.00     0.00   0.000
  S159                    1458.54       0.00       0.00       0.00    1459.66       0.00    1459.66      149.62   175.60   1.001
  S160                       0.00       0.00       0.00       0.00       0.00       0.00       0.00        0.00     0.00   0.000
  S161                       0.00       0.00       0.00       0.00       0.00       0.00       0.00        0.00     0.00   0.000
  S162                       0.00       0.00       0.00       0.00       0.00       0.00       0.00        0.00     0.00   0.000
  S163                    1275.49       0.00       0.00       0.00    1276.37       0.00    1276.37      143.59   137.99   1.001
  S164                       0.00       0.00       0.00       0.00       0.00       0.00       0.00        0.00     0.00   0.000
  S165                    1417.47       0.00       0.00       0.00    1418.39       0.00    1418.39      198.58   188.35   1.001
  S166                    1456.65       0.00       0.00       0.00    1457.85       0.00    1457.85      127.56   150.90   1.001
  S167                       0.00       0.00       0.00       0.00       0.00       0.00       0.00        0.00     0.00   0.000
  S168                       0.00       0.00       0.00       0.00       0.00       0.00       0.00        0.00     0.00   0.000
  S169                    1440.34       0.00       0.00       0.00    1442.07       0.00    1442.07       57.68    73.87   1.001
  S170                       0.00       0.00       0.00       0.00       0.00       0.00       0.00        0.00     0.00   0.000
  S171                       0.00       0.00       0.00       0.00       0.00       0.00       0.00        0.00     0.00   0.000
  S173                       0.00       0.00       0.00       0.00       0.00       0.00       0.00        0.00     0.00   0.000
  S174                       0.00       0.00       0.00       0.00       0.00       0.00       0.00        0.00     0.00   0.000
  S175                     921.04       0.00       0.00       0.00     921.43       0.00     921.43      135.91   118.21   1.000
  S177                       0.00       0.00       0.00       0.00       0.00       0.00       0.00        0.00     0.00   0.000
  S181                       0.00       0.00       0.00       0.00       0.00       0.00       0.00        0.00     0.00   0.000
  S182                       0.00       0.00       0.00       0.00       0.00       0.00       0.00        0.00     0.00   0.000
  S183                       0.00       0.00       0.00       0.00       0.00       0.00       0.00        0.00     0.00   0.000
  S184                       0.00       0.00       0.00       0.00       0.00       0.00       0.00        0.00     0.00   0.000
  S185                    1413.15       0.00       0.00       0.00    1412.97       0.00    1412.97     1971.10  1311.86   1.000
  S186                       0.00       0.00       0.00       0.00       0.00       0.00       0.00        0.00     0.00   0.000
  S187                    1445.01       0.00       0.00       0.00    1445.91       0.00    1445.91      213.27   222.36   1.001
  S189                       0.00       0.00       0.00       0.00       0.00       0.00       0.00        0.00     0.00   0.000
  S190                       0.00       0.00       0.00       0.00       0.00       0.00       0.00        0.00     0.00   0.000
  S191                       0.00       0.00       0.00       0.00       0.00       0.00       0.00        0.00     0.00   0.000
  S193                    1402.44       0.00       0.00       0.00    1403.28       0.00    1403.28      231.54   222.67   1.001
  S194                       0.00       0.00       0.00       0.00       0.00       0.00       0.00        0.00     0.00   0.000
  S197                       0.00       0.00       0.00       0.00       0.00       0.00       0.00        0.00     0.00   0.000
  S198                       0.00       0.00       0.00       0.00       0.00       0.00       0.00        0.00     0.00   0.000
  S199                    1393.03       0.00       0.00       0.00    1394.60       0.00    1394.60       69.73    75.98   1.001
  S200                       0.00       0.00       0.00       0.00       0.00       0.00       0.00        0.00     0.00   0.000
  S201                       0.00       0.00       0.00       0.00       0.00       0.00       0.00        0.00     0.00   0.000
  S202                       0.00       0.00       0.00       0.00       0.00       0.00       0.00        0.00     0.00   0.000
  S203                       0.00       0.00       0.00       0.00       0.00       0.00       0.00        0.00     0.00   0.000
  S204                       0.00       0.00       0.00       0.00       0.00       0.00       0.00        0.00     0.00   0.000
  S205                       0.00       0.00       0.00       0.00       0.00       0.00       0.00        0.00     0.00   0.000
  S206                       0.00       0.00       0.00       0.00       0.00       0.00       0.00        0.00     0.00   0.000
  S207                       0.00       0.00       0.00       0.00       0.00       0.00       0.00        0.00     0.00   0.000
  S208                       0.00       0.00       0.00       0.00       0.00       0.00       0.00        0.00     0.00   0.000
  S210                       0.00       0.00       0.00       0.00       0.00       0.00       0.00        0.00     0.00   0.000
  S211                       0.00       0.00       0.00       0.00       0.00       0.00       0.00        0.00     0.00   0.000
  S212                       0.00       0.00       0.00       0.00       0.00       0.00       0.00        0.00     0.00   0.000
  S213                    1377.53       0.00       0.00       0.00    1379.22       0.00    1379.22       58.62    66.27   1.001
  S214                       0.00       0.00       0.00       0.00       0.00       0.00       0.00        0.00     0.00   0.000
  S215                       0.00       0.00       0.00       0.00       0.00       0.00       0.00        0.00     0.00   0.000
  S216                       0.00       0.00       0.00       0.00       0.00       0.00       0.00        0.00     0.00   0.000
  S217                       0.00       0.00       0.00       0.00       0.00       0.00       0.00        0.00     0.00   0.000
  S218                       0.00       0.00       0.00       0.00       0.00       0.00       0.00        0.00     0.00   0.000
  S221                       0.00       0.00       0.00       0.00       0.00       0.00       0.00        0.00     0.00   0.000
  S222                    1286.14       0.00       0.00       0.00    1286.36       0.00    1286.36      668.91   532.59   1.000
  S223                    1391.62       0.00       0.00       0.00    1393.22       0.00    1393.22       66.18    72.38   1.001
  S226                       0.00       0.00       0.00       0.00       0.00       0.00       0.00        0.00     0.00   0.000
  S227                       0.00       0.00       0.00       0.00       0.00       0.00       0.00        0.00     0.00   0.000
  S228                    1370.05       0.00       0.00       0.00    1373.16       0.00    1373.16       13.73    18.36   1.002
  S229                    1413.45       0.00       0.00       0.00    1415.78       0.00    1415.78       28.32    37.87   1.002
  S230                       0.00       0.00       0.00       0.00       0.00       0.00       0.00        0.00     0.00   0.000
  S231                       0.00       0.00       0.00       0.00       0.00       0.00       0.00        0.00     0.00   0.000
  S232                       0.00       0.00       0.00       0.00       0.00       0.00       0.00        0.00     0.00   0.000
  S233                       0.00       0.00       0.00       0.00       0.00       0.00       0.00        0.00     0.00   0.000
  S234                       0.00       0.00       0.00       0.00       0.00       0.00       0.00        0.00     0.00   0.000
  S235                       0.00       0.00       0.00       0.00       0.00       0.00       0.00        0.00     0.00   0.000
  S236                       0.00       0.00       0.00       0.00       0.00       0.00       0.00        0.00     0.00   0.000
  S237                    1398.85       0.00       0.00       0.00    1399.62       0.00    1399.62      258.93   244.27   1.001
  S238                       0.00       0.00       0.00       0.00       0.00       0.00       0.00        0.00     0.00   0.000
  S239                       0.00       0.00       0.00       0.00       0.00       0.00       0.00        0.00     0.00   0.000
  S240                       0.00       0.00       0.00       0.00       0.00       0.00       0.00        0.00     0.00   0.000
  S241                    1374.66       0.00       0.00       0.00    1376.78       0.00    1376.78       34.42    40.05   1.002
  S242                       0.00       0.00       0.00       0.00       0.00       0.00       0.00        0.00     0.00   0.000
  S243                       0.00       0.00       0.00       0.00       0.00       0.00       0.00        0.00     0.00   0.000
  S244                    1365.56       0.00       0.00       0.00    1366.94       0.00    1366.94       92.27   102.84   1.001
  S245                    1369.60       0.00       0.00       0.00    1371.23       0.00    1371.23       65.13    74.22   1.001
  S246                       0.00       0.00       0.00       0.00       0.00       0.00       0.00        0.00     0.00   0.000
  S247                       0.00       0.00       0.00       0.00       0.00       0.00       0.00        0.00     0.00   0.000
  S248                       0.00       0.00       0.00       0.00       0.00       0.00       0.00        0.00     0.00   0.000
  S249                       0.00       0.00       0.00       0.00       0.00       0.00       0.00        0.00     0.00   0.000
  S250                       0.00       0.00       0.00       0.00       0.00       0.00       0.00        0.00     0.00   0.000
  S251                       0.00       0.00       0.00       0.00       0.00       0.00       0.00        0.00     0.00   0.000
  S252                    1425.46       0.00       0.00       0.00    1426.93       0.00    1426.93       82.05    90.41   1.001
  S253                       0.00       0.00       0.00       0.00       0.00       0.00       0.00        0.00     0.00   0.000
  S254                       0.00       0.00       0.00       0.00       0.00       0.00       0.00        0.00     0.00   0.000
  S255                       0.00       0.00       0.00       0.00       0.00       0.00       0.00        0.00     0.00   0.000
  S256                       0.00       0.00       0.00       0.00       0.00       0.00       0.00        0.00     0.00   0.000
  S257                    1364.67       0.00       0.00       0.00    1365.98       0.00    1365.98      102.45   112.96   1.001
  S258                       0.00       0.00       0.00       0.00       0.00       0.00       0.00        0.00     0.00   0.000
  S259                       0.00       0.00       0.00       0.00       0.00       0.00       0.00        0.00     0.00   0.000
  S260                       0.00       0.00       0.00       0.00       0.00       0.00       0.00        0.00     0.00   0.000
  S261                       0.00       0.00       0.00       0.00       0.00       0.00       0.00        0.00     0.00   0.000
  S262                       0.00       0.00       0.00       0.00       0.00       0.00       0.00        0.00     0.00   0.000
  S263                       0.00       0.00       0.00       0.00       0.00       0.00       0.00        0.00     0.00   0.000
  S264                       0.00       0.00       0.00       0.00       0.00       0.00       0.00        0.00     0.00   0.000
  S265                       0.00       0.00       0.00       0.00       0.00       0.00       0.00        0.00     0.00   0.000
  S266                       0.00       0.00       0.00       0.00       0.00       0.00       0.00        0.00     0.00   0.000
  S267                       0.00       0.00       0.00       0.00       0.00       0.00       0.00        0.00     0.00   0.000
  S268                       0.00       0.00       0.00       0.00       0.00       0.00       0.00        0.00     0.00   0.000
  S269                       0.00       0.00       0.00       0.00       0.00       0.00       0.00        0.00     0.00   0.000
  S270                       0.00       0.00       0.00       0.00       0.00       0.00       0.00        0.00     0.00   0.000
  S271                    1359.91       0.00       0.00       0.00    1361.72       0.00    1361.72       51.06    60.01   1.001
  S272                       0.00       0.00       0.00       0.00       0.00       0.00       0.00        0.00     0.00   0.000
  S273                       0.00       0.00       0.00       0.00       0.00       0.00       0.00        0.00     0.00   0.000
  
  
  ******************
  Node Depth Summary
  ******************
  
  ---------------------------------------------------------------------------------
                                 Average  Maximum  Maximum  Time of Max    Reported
                                   Depth    Depth      HGL   Occurrence   Max Depth
  Node                 Type       Meters   Meters   Meters  days hr:min      Meters
  ---------------------------------------------------------------------------------
  0                    JUNCTION     0.00     0.00  1872.50     0  00:00        0.00
  1                    JUNCTION     0.00     0.00  1762.50     0  00:00        0.00
  2                    JUNCTION     0.00     0.00  1680.00     0  00:00        0.00
  3                    JUNCTION     1.51    66.11  1498.61   262  19:16       54.62
  4                    JUNCTION     0.04     0.18  1955.18   259  03:00        0.18
  5                    JUNCTION     0.06     0.27  1817.77   259  03:17        0.27
  6                    JUNCTION     5.50   137.18  1487.18   259  03:00      137.12
  7                    JUNCTION     1.96    48.96  1673.96   259  03:03       48.58
  8                    JUNCTION     1.96    49.00  1674.00   259  03:03       48.62
  9                    JUNCTION     1.94    48.50  1673.50   259  03:03       48.13
  10                   JUNCTION     1.95    48.85  1673.85   259  03:03       48.47
  11                   JUNCTION     0.08     0.35  1927.85   259  03:04        0.35
  12                   JUNCTION     0.05     0.24  1762.74   262  21:03        0.24
  13                   JUNCTION     0.08     0.27  1515.27   237  07:02        0.27
  14                   JUNCTION     7.91   164.73  1487.23   259  03:00      164.67
  15                   JUNCTION     7.89   164.63  1487.13   259  03:00      164.58
  16                   JUNCTION     7.77   164.27  1486.77   259  03:01      164.22
  17                   JUNCTION     0.02     0.11  1790.11   259  03:01        0.11
  18                   JUNCTION     0.06     0.22  1625.22   259  03:12        0.22
  19                   JUNCTION     0.32     0.88  1763.38   259  03:18        0.85
  20                   JUNCTION     0.00     0.01  1790.01   259  03:04        0.01
  21                   JUNCTION     0.12     0.55  1708.05   262  21:03        0.55
  22                   JUNCTION     0.20     0.74  1763.24   259  03:19        0.70
  23                   JUNCTION     0.00     0.00  1790.00   193  02:29        0.00
  24                   JUNCTION     0.94    11.61  1719.11   259  03:29       10.21
  25                   JUNCTION     0.06     0.19  1735.19   259  03:19        0.18
  26                   JUNCTION     0.58    19.29  1506.79   259  03:05       18.78
  27                   JUNCTION     0.10     0.36  1515.36   259  03:09        0.36
  28                   JUNCTION     0.03     0.15  1625.15   259  03:06        0.15
  29                   JUNCTION     0.94    11.62  1719.12   259  03:29       10.20
  30                   JUNCTION     0.01     0.05  1735.05   259  03:20        0.05
  31                   JUNCTION    16.12   201.00  1468.50   163  19:44      201.00
  32                   JUNCTION    16.11   201.00  1468.50   163  19:44      201.00
  33                   JUNCTION     0.15    14.21  1501.71   259  03:05       13.78
  34                   JUNCTION     0.02     0.08  1515.08   259  03:00        0.08
  35                   JUNCTION    16.11   201.00  1468.50   163  19:44      201.00
  36                   JUNCTION    16.10   201.00  1468.50   163  19:44      201.00
  37                   JUNCTION    16.09   201.00  1468.50   163  19:44      201.00
  38                   JUNCTION     0.32     2.77  1682.77     2  09:04        0.87
  39                   JUNCTION     0.11     0.36  1707.86   259  03:29        0.35
  40                   JUNCTION    16.08   201.00  1468.50   163  19:44      201.00
  41                   JUNCTION    16.05   201.00  1468.50   168  20:29      201.00
  42                   JUNCTION     0.70    30.37  1490.37   259  03:04       30.10
  43                   JUNCTION     0.22     2.98  1682.98     2  09:03        0.78
  44                   JUNCTION     0.01     0.06  1707.56   259  03:29        0.06
  45                   JUNCTION     0.21    23.61  1483.61   259  03:03       23.44
  46                   JUNCTION     0.01     0.08  1680.08   262  19:00        0.08
  47                   JUNCTION     0.12     0.56  1570.56   262  21:01        0.56
  48                   JUNCTION     0.24     0.98  1625.98   262  21:10        0.98
  49                   JUNCTION     0.24     0.98  1625.98   262  21:10        0.98
  50                   JUNCTION     0.00     0.05  1652.55   262  19:06        0.05
  51                   JUNCTION    14.57   201.00  1468.50   168  20:42      201.00
  52                   JUNCTION    14.51   201.00  1468.50   168  22:16      201.00
  53                   JUNCTION     0.24     0.98  1625.98   262  21:10        0.98
  54                   JUNCTION     0.24     0.98  1625.98   262  21:10        0.98
  55                   JUNCTION    14.51   201.00  1468.50   168  21:37      201.00
  56                   JUNCTION    14.44   201.00  1468.50   227  18:05      201.00
  57                   JUNCTION     0.77     7.51  1605.01   259  03:42        6.35
  58                   JUNCTION     0.06     0.19  1625.19     2  09:09        0.18
  59                   JUNCTION     0.24     0.98  1625.98   262  21:10        0.98
  60                   JUNCTION     0.24     0.98  1625.98   262  21:10        0.98
  61                   JUNCTION     0.77     7.52  1605.02   259  03:42        6.36
  62                   JUNCTION     0.01     0.05  1625.05     2  09:09        0.05
  63                   JUNCTION     0.24     0.98  1625.98   262  21:09        0.98
  64                   JUNCTION     0.24     0.98  1625.98   262  21:10        0.98
  65                   JUNCTION     0.24     0.98  1625.98   262  21:10        0.98
  66                   JUNCTION    13.29   201.00  1468.50   227  18:12      201.00
  67                   JUNCTION     0.83     9.74  1579.74   259  03:45        8.89
  68                   JUNCTION     0.06     0.19  1597.69   259  03:42        0.19
  69                   JUNCTION     0.04     0.16  1597.66   262  21:04        0.16
  70                   JUNCTION     0.24     0.98  1625.98   262  21:10        0.97
  71                   JUNCTION     0.24     0.98  1625.98   262  21:10        0.98
  72                   JUNCTION    12.90   201.00  1468.50   237  05:27      201.00
  73                   JUNCTION    12.80   201.00  1468.50   237  05:29      201.00
  74                   JUNCTION     0.82     9.75  1579.75   259  03:45        8.89
  75                   JUNCTION     0.01     0.03  1597.53   259  03:43        0.03
  76                   JUNCTION     0.56    11.64  1581.64   262  21:14       11.53
  77                   JUNCTION     0.00     0.02  1597.52   262  21:06        0.02
  78                   JUNCTION     0.08     0.39  1652.89   262  21:07        0.39
  79                   JUNCTION    12.80   201.00  1468.50   237  05:29      201.00
  80                   JUNCTION    12.70   201.00  1468.50   237  05:31      201.00
  81                   JUNCTION     0.78     8.69  1551.19   259  03:46        7.94
  82                   JUNCTION     0.13     0.42  1570.42   259  03:45        0.41
  83                   JUNCTION    11.65   200.74  1468.24   259  03:03      200.72
  84                   JUNCTION     0.18     0.63  1543.13   259  03:42        0.62
  85                   JUNCTION     0.00     0.04  1570.04   259  03:46        0.03
  86                   JUNCTION     0.56    11.62  1499.12   262  21:11        7.55
  87                   JUNCTION     0.07     0.30  1515.30   262  21:01        0.30
  88                   JUNCTION     0.42     4.68  1574.68   262  21:14        4.11
  89                   JUNCTION     0.52     9.72  1497.22   262  21:12        6.02
  90                   JUNCTION     0.01     0.05  1515.05   262  21:02        0.05
  91                   JUNCTION     0.12     1.19  1571.19   262  21:14        0.81
  92                   JUNCTION     0.30     2.17  1627.17   262  21:07        2.15
  93                   JUNCTION     0.01     0.08  1652.58   262  21:08        0.08
  94                   JUNCTION     0.07     0.37  1625.37   262  21:06        0.37
  95                   JUNCTION     0.51    32.93  1492.93   262  21:12       28.19
  96                   JUNCTION     0.07     5.75  1493.25   262  21:11        1.00
  97                   JUNCTION     0.47     1.70  1379.20   259  03:36        1.54
  98                   JUNCTION     0.00     0.00  1405.00   259  02:51        0.00
  99                   JUNCTION     0.46    32.33  1492.33   262  21:12       27.63
  100                  JUNCTION     0.03     5.34  1492.84   262  21:12        0.55
  101                  JUNCTION     0.13     0.56  1625.56   262  21:00        0.56
  102                  JUNCTION     0.44     1.44  1378.94   259  03:36        1.31
  103                  JUNCTION     0.00     0.00  1405.00   259  01:27        0.00
  104                  JUNCTION     0.10    29.35  1489.35   262  21:12       25.03
  105                  JUNCTION     0.14    19.11  1561.61   262  21:06       18.58
  106                  JUNCTION     0.04     0.22  1625.22   262  21:00        0.22
  107                  JUNCTION     0.78    19.06  1424.06   259  03:48       16.86
  108                  JUNCTION     0.13     0.50  1433.00   259  03:48        0.46
  109                  JUNCTION     0.84    55.96  1488.46   262  21:13       51.76
  110                  JUNCTION     0.25     1.81  1599.31   262  21:00        1.81
  111                  JUNCTION     0.05     0.23  1570.23   262  21:00        0.23
  112                  JUNCTION     0.19    11.36  1416.36   259  03:48        9.54
  113                  JUNCTION     0.02     0.09  1432.59   259  03:48        0.08
  114                  JUNCTION     0.36     0.87  1350.87   259  03:37        0.84
  115                  JUNCTION     0.06     0.18  1377.68   259  03:36        0.17
  116                  JUNCTION     0.02    27.80  1487.80   262  21:13       23.67
  117                  JUNCTION     0.01     0.18  1570.18   262  21:17        0.13
  118                  JUNCTION     0.02     0.11  1625.11   262  19:01        0.11
  119                  JUNCTION     0.08     0.60  1405.60   259  03:48        0.60
  120                  JUNCTION     0.08     0.39  1405.39   259  03:29        0.38
  121                  JUNCTION     0.11     0.31  1350.31   259  03:40        0.30
  122                  JUNCTION     0.01     0.05  1377.55   259  03:37        0.05
  123                  JUNCTION     0.72    54.42  1486.92   262  21:13       50.40
  124                  JUNCTION     0.22     1.18  1598.68   262  21:00        1.18
  125                  JUNCTION     0.09     0.79  1543.29   262  21:24        0.52
  126                  JUNCTION     0.04     0.26  1597.76   262  19:03        0.26
  127                  JUNCTION     0.06     0.50  1378.00   259  03:55        0.49
  128                  JUNCTION     0.00     0.02  1570.02   262  21:21        0.01
  129                  JUNCTION     0.17     0.58  1488.08   262  21:10        0.58
  130                  JUNCTION     7.31   201.00  1441.00   259  02:48      201.00
  131                  JUNCTION     6.82   197.73  1437.73   262  21:00      197.73
  132                  JUNCTION     0.87    58.05  1380.55   259  03:47       57.83
  133                  JUNCTION     0.16    31.68  1381.68   259  03:47       31.39
  134                  JUNCTION     0.08     0.64  1543.14   262  21:27        0.44
  135                  JUNCTION     6.81   197.61  1437.61   262  21:00      197.61
  136                  JUNCTION     6.31   194.23  1434.23   262  20:59      194.22
  137                  JUNCTION     5.75   189.28  1429.28   262  21:00      189.28
  138                  JUNCTION     0.54    55.70  1378.20   259  03:50       55.55
  139                  JUNCTION     0.05    29.44  1379.44   259  03:47       29.24
  140                  JUNCTION     0.24    42.09  1474.59   262  21:16       39.53
  141                  JUNCTION     0.14    33.40  1493.40   262  21:26       30.23
  142                  JUNCTION     0.02     0.17  1542.67   262  21:28        0.12
  143                  JUNCTION     0.05     0.31  1542.81   262  19:05        0.30
  144                  JUNCTION     0.04     0.26  1570.26   262  19:05        0.25
  145                  JUNCTION     0.06     0.33  1570.33   262  21:02        0.33
  146                  JUNCTION     0.03     0.16  1625.16   262  21:17        0.15
  147                  JUNCTION     0.06     0.28  1487.78   262  21:21        0.28
  148                  JUNCTION     5.75   189.28  1429.28   262  21:00      189.28
  149                  JUNCTION     6.34   201.00  1413.50   254  21:15      201.00
  150                  JUNCTION     4.77   184.36  1424.36   262  20:59      184.35
  151                  JUNCTION     0.00     0.02  1542.52   262  21:31        0.02
  152                  JUNCTION     0.17     0.59  1488.09   262  21:11        0.58
  153                  JUNCTION     0.29    55.70  1378.20   259  03:49       55.56
  154                  JUNCTION     0.30     3.94  1518.94   262  19:05        3.77
  155                  JUNCTION     0.46    72.78  1367.78   259  03:50       72.64
  156                  JUNCTION     0.29     3.43  1518.43   262  19:05        3.28
  157                  JUNCTION     0.20     0.76  1488.26   262  22:05        0.76
  158                  JUNCTION     0.20     0.76  1488.26   262  22:04        0.76
  159                  JUNCTION     0.20     0.76  1488.26   262  22:06        0.76
  160                  JUNCTION     0.20     0.76  1488.26   262  22:05        0.76
  161                  JUNCTION     0.77   102.14  1369.64   262  19:51       95.54
  162                  JUNCTION     0.64    94.93  1362.43   259  03:05       94.75
  163                  JUNCTION     0.61    94.89  1362.39   259  03:05       94.71
  164                  JUNCTION     0.52    42.77  1447.77   262  21:09       42.09
  165                  JUNCTION     0.04    15.90  1448.40   262  21:09       15.19
  166                  JUNCTION     0.04     0.24  1515.24   262  19:08        0.24
  167                  JUNCTION     0.50    40.83  1445.83   262  21:09       40.18
  168                  JUNCTION     0.02    14.34  1446.84   262  21:09       13.68
  169                  JUNCTION     0.20     0.77  1488.27   262  22:23        0.76
  170                  JUNCTION     0.20     0.77  1488.27   262  22:23        0.76
  171                  JUNCTION     0.20     0.77  1488.27   262  22:24        0.76
  172                  JUNCTION     0.20     0.77  1488.27   262  22:23        0.76
  173                  JUNCTION     0.20     0.77  1488.27   262  22:23        0.76
  174                  JUNCTION     0.02     0.11  1377.61   262  21:00        0.11
  175                  JUNCTION     0.00     0.00  1432.50     0  00:00        0.00
  176                  JUNCTION     1.32   173.56  1413.56   262  19:51      119.91
  177                  JUNCTION     0.20     0.77  1488.27   262  22:24        0.76
  178                  JUNCTION     0.20     0.77  1488.27   262  22:23        0.76
  179                  JUNCTION     0.20     0.77  1488.27   262  22:24        0.76
  180                  JUNCTION     0.21     0.82  1323.32   262  21:03        0.82
  181                  JUNCTION     0.20     0.77  1488.27   262  22:23        0.76
  182                  JUNCTION     0.20     0.77  1488.27   262  22:23        0.76
  183                  JUNCTION     0.20     0.77  1488.27   262  22:24        0.76
  184                  JUNCTION     6.18   201.00  1386.00   254  21:24      201.00
  185                  JUNCTION     5.93   201.00  1386.00   262  19:46      198.66
  186                  JUNCTION     0.43    23.47  1400.97   262  19:48       18.20
  187                  JUNCTION     0.00     0.40  1405.40   262  21:10        0.40
  188                  JUNCTION     0.20     0.77  1488.27   262  22:23        0.76
  189                  JUNCTION     0.20     0.77  1488.27   262  22:23        0.76
  190                  JUNCTION     0.20     0.77  1488.27   262  22:23        0.76
  191                  JUNCTION     0.00     0.02  1377.52   262  21:02        0.02
  192                  JUNCTION     5.95   201.00  1386.00   262  19:46      199.27
  193                  JUNCTION     5.68   201.00  1386.00   262  19:45      196.32
  194                  JUNCTION     0.21     2.35  1379.85   169  00:51        2.30
  195                  JUNCTION     0.00     0.01  1405.01   262  21:23        0.00
  196                  JUNCTION     0.01     0.08  1322.58   262  21:05        0.08
  197                  JUNCTION     4.63   201.00  1386.00   262  19:45      185.80
  198                  JUNCTION     4.37   201.00  1386.00   262  19:45      183.27
  199                  JUNCTION     0.76    78.80  1373.80   262  21:04       78.68
  200                  JUNCTION     0.08     2.34  1379.84   169  00:51        2.29
  201                  JUNCTION     0.03     0.19  1405.19   262  19:12        0.19
  202                  JUNCTION     0.03     0.20  1432.70   262  19:10        0.20
  203                  JUNCTION     0.05     0.28  1432.78   262  19:18        0.28
  204                  JUNCTION     0.03     0.19  1460.19   262  21:03        0.18
  205                  JUNCTION     0.03     0.20  1487.70   262  21:05        0.20
  206                  JUNCTION     0.05     0.24  1487.74   262  22:12        0.24
  207                  JUNCTION     0.22     0.90  1488.40   262  21:56        0.90
  208                  JUNCTION     0.24     1.09  1296.09   262  22:34        1.02
  209                  JUNCTION     0.24     1.09  1296.09   262  22:34        1.02
  210                  JUNCTION     4.37   201.00  1386.00   262  19:46      183.05
  211                  JUNCTION     4.10   201.00  1386.00   262  19:48      180.30
  212                  JUNCTION     3.82   201.00  1386.00   262  19:46      177.54
  213                  JUNCTION     0.24     1.08  1296.08   262  22:34        1.02
  214                  JUNCTION     0.24     1.09  1296.09   262  22:34        1.02
  215                  JUNCTION     3.81   201.00  1386.00   262  19:47      177.34
  216                  JUNCTION     3.19   201.00  1386.00   262  19:45      174.39
  217                  JUNCTION     5.15   201.00  1358.50   262  19:47      195.83
  218                  JUNCTION     0.96    94.01  1334.01   259  03:38       93.70
  219                  JUNCTION     1.48    98.46  1338.46   259  03:37       98.15
  220                  JUNCTION     0.04     0.20  1460.20   262  21:28        0.20
  221                  JUNCTION     4.27   201.00  1358.50   262  19:45      190.25
  222                  JUNCTION     4.14   201.00  1358.50   262  19:45      189.91
  223                  JUNCTION     1.56   118.38  1330.88   259  03:39      118.25
  224                  JUNCTION     0.90    93.11  1333.11   259  03:39       92.90
  225                  JUNCTION     0.05     0.25  1405.25   262  21:08        0.24
  226                  JUNCTION     0.24     1.08  1296.08   262  22:33        1.02
  227                  JUNCTION     5.10   201.00  1358.50   262  19:45      192.66
  228                  JUNCTION     1.21    92.80  1332.80   259  03:37       92.60
  229                  JUNCTION     0.34    14.04  1336.54   243  02:25       13.91
  230                  JUNCTION     0.04     0.40  1350.40   243  02:25        0.40
  231                  JUNCTION     0.04     0.24  1377.74   262  21:07        0.23
  232                  JUNCTION     0.29     8.51  1331.01   243  02:25        8.43
  233                  JUNCTION     0.00     0.07  1350.07   243  02:25        0.07
  234                  JUNCTION     3.79   201.00  1358.50   262  19:46      173.76
  235                  JUNCTION     7.77   201.00  1331.00   259  02:47      201.00
  236                  JUNCTION     7.44   201.00  1331.00   262  19:45      199.20
  237                  JUNCTION     7.46   201.00  1331.00   262  19:46      198.12
  238                  JUNCTION     8.02   200.88  1330.88   259  03:40      200.74
  239                  JUNCTION     0.04     0.36  1322.86   243  02:25        0.35
  240                  JUNCTION     7.14   201.00  1331.00   262  19:47      194.55
  241                  JUNCTION     7.04   201.00  1331.00   262  19:45      193.85
  242                  JUNCTION     0.28     5.28  1300.28   262  22:09        5.08
  243                  JUNCTION     6.34   201.00  1331.00   262  19:47      187.19
  244                  JUNCTION     6.76   201.00  1331.00   262  19:46      190.49
  245                  JUNCTION     6.62   201.00  1331.00   262  19:46      190.25
  246                  JUNCTION     7.14   201.00  1331.00   262  19:46      190.35
  247                  JUNCTION     7.10   201.00  1331.00   262  19:46      187.06
  248                  JUNCTION     7.23   186.81  1316.81   259  03:13      186.72
  249                  JUNCTION     2.11   131.82  1316.82   259  03:11      131.71
  250                  JUNCTION     0.64    69.03  1309.03   259  03:14       68.90
  251                  JUNCTION     0.08     2.01  1297.01   262  22:03        2.00
  252                  JUNCTION     0.04     0.20  1322.70   262  21:14        0.20
  253                  JUNCTION     0.02     0.12  1322.62   262  21:43        0.12
  254                  JUNCTION     0.03     1.99  1296.99   262  22:03        1.99
  255                  JUNCTION     6.74   201.00  1331.00   262  19:49      181.52
  256                  JUNCTION    23.43   201.00  1303.50   262  19:47      108.32
  257                  JUNCTION     0.70    81.09  1293.59   259  03:19       80.91
  258                  JUNCTION    23.43   149.71  1252.21   262  19:54      108.32
  259                  JUNCTION     3.49   145.70  1275.70   262  19:46      145.22
  260                  JUNCTION     2.37   134.97  1292.47   259  03:18      134.75
  261                  JUNCTION     6.08   161.73  1264.23   259  03:16      161.44
  262                  JUNCTION    19.05   168.58  1243.58   259  03:18      168.38
  263                  JUNCTION     0.03     0.15  1432.65   262  21:30        0.15
  264                  JUNCTION    16.19   131.69  1206.69   259  03:16      131.53
  265                  JUNCTION     1.21   121.57  1251.57   262  21:04      120.78
  266                  JUNCTION     0.86   120.96  1168.46   262  21:04      118.96
  267                  JUNCTION     0.07     0.30  1295.30   262  22:15        0.30
  268                  JUNCTION    14.86   151.75  1171.75   262  21:04      149.88
  269                  JUNCTION    40.32   175.80  1168.30   262  21:04      173.80
  270                  OUTFALL      0.38     1.00  1121.00   168  21:34        1.00
  271                  OUTFALL      0.42     0.96  1080.96   259  03:16        0.96
  272                  OUTFALL      0.11     1.00  1036.00   227  18:55        1.00
  
  
  *******************
  Node Inflow Summary
  *******************
  
  -------------------------------------------------------------------------------------------------
                                  Maximum  Maximum                  Lateral       Total        Flow
                                  Lateral    Total  Time of Max      Inflow      Inflow     Balance
                                   Inflow   Inflow   Occurrence      Volume      Volume       Error
  Node                 Type           LPS      LPS  days hr:min    10^6 ltr    10^6 ltr     Percent
  -------------------------------------------------------------------------------------------------
  0                    JUNCTION      0.00     0.00     0  00:00           0           0       0.000 ltr
  1                    JUNCTION      0.00     0.00     0  00:00           0           0       0.000 ltr
  2                    JUNCTION      0.00     0.00     0  00:00           0           0       0.000 ltr
  3                    JUNCTION      0.00   699.22   258  23:38           0        7.58       0.529
  4                    JUNCTION    263.34   263.34   259  03:00         371         371      -0.002
  5                    JUNCTION    160.76   423.77   259  03:00         210         581      -0.057
  6                    JUNCTION      0.00  1392.99   262  18:58           0          56       0.022
  7                    JUNCTION    326.36   379.63   259  03:04         967    1.02e+03      -0.000
  8                    JUNCTION    329.40   460.59   254  21:00         489         608      -0.015
  9                    JUNCTION      0.00   708.02   259  03:07           0    1.59e+03      -0.004
  10                   JUNCTION    112.27   329.71   259  03:01         138         691       0.000
  11                   JUNCTION    263.34   263.34   259  03:00         374         374      -0.003
  12                   JUNCTION    467.05   467.05   262  21:00         499         499      -0.016
  13                   JUNCTION    419.89   419.89   237  07:00         854         854      -0.001
  14                   JUNCTION    518.13   728.62   262  18:59         791         813      -0.008
  15                   JUNCTION    131.32   709.89   262  18:59         190         527      -0.022
  16                   JUNCTION    135.75  1176.70   262  18:59         149    1.15e+03       0.001
  17                   JUNCTION    233.11   233.11   259  03:00         325         325      -0.007
  18                   JUNCTION    152.15   858.34   259  03:03         196    1.79e+03       0.001
  19                   JUNCTION     53.53  2713.65   259  03:11        62.3    3.09e+03      11.229
  20                   JUNCTION      0.00   261.93   259  03:08           0         374     -87.659
  21                   JUNCTION    615.26   615.26   262  21:00         843         843      -0.000
  22                   JUNCTION      0.00  1172.97   259  03:17           0    2.78e+03      -0.189
  23                   JUNCTION      0.00     0.00   168  21:08           0    0.000252       0.000
  24                   JUNCTION      0.00  1123.48   259  03:19           0    2.75e+03       0.065
  25                   JUNCTION      0.00  1146.19   259  03:19           0    2.78e+03       0.001
  26                   JUNCTION    181.93  1260.45   259  03:07         209    2.29e+03       0.000
  27                   JUNCTION    267.68  1113.76   259  03:08         321    2.11e+03      -0.001
  28                   JUNCTION    165.21   397.60   259  03:00         220         545      -0.018
  29                   JUNCTION      0.00  1125.66   259  03:29           0    2.78e+03       0.032
  30                   JUNCTION      0.00    21.79   259  03:19           0        37.3       0.000
  31                   JUNCTION    241.61  1110.68   262  18:59         315    1.46e+03       0.023
  32                   JUNCTION      0.00   486.67   262  18:59           0         647       0.017
  33                   JUNCTION      0.00  1308.52   259  03:06           0    2.34e+03      -0.000
  34                   JUNCTION     37.93    48.53   259  03:00        18.7        51.4       0.000
  35                   JUNCTION    248.09   553.36   262  18:59         300         813       0.000
  36                   JUNCTION     69.01   949.24   262  18:59        72.9    1.48e+03       0.028
  37                   JUNCTION    654.39   654.39   262  21:00         859    1.39e+03       0.012
  38                   JUNCTION     30.30 13432.93     2  09:03          21    2.79e+03      -0.011
  39                   JUNCTION     38.92  1132.16   259  03:29        32.7    2.81e+03       0.000
  40                   JUNCTION    127.32   433.19   262  18:59        85.6    1.01e+03       0.000
  41                   JUNCTION    106.11   841.12   187  17:58         114    2.37e+03       0.011
  42                   JUNCTION      0.00  1456.60   259  03:08           0    2.65e+03       0.002
  43                   JUNCTION     43.68 25194.87     2  09:03        35.2    2.87e+03      -0.013
  44                   JUNCTION      0.00    29.35   259  03:29           0        43.3       0.000
  45                   JUNCTION      0.00  1456.63   259  03:08           0    2.65e+03       0.004
  46                   JUNCTION     81.23    81.23   262  19:00        54.4        54.4      -0.594
  47                   JUNCTION    806.55   806.55   262  21:00    1.13e+03    1.13e+03       0.000
  48                   JUNCTION     21.08    44.37   262  21:02        27.9        46.1       0.000
  49                   JUNCTION      0.00    73.33   262  19:06           0        53.4       0.027
  50                   JUNCTION      0.00    81.07   262  19:00           0        54.7      -1.550
  51                   JUNCTION    613.88   992.60   187  17:57         774    3.13e+03      -0.001
  52                   JUNCTION     71.41   501.07   187  17:58        51.5     1.6e+03      -0.003
  53                   JUNCTION      0.00    77.94   262  21:10           0        81.3       0.004
  54                   JUNCTION      0.00    35.23   262  21:02           0        35.2       0.000
  55                   JUNCTION    136.46   505.06   187  17:56        99.5    1.62e+03       0.000
  56                   JUNCTION      0.00  1010.45   187  17:58           0    3.21e+03      -0.002
  57                   JUNCTION      0.00  1182.53     2  09:09           0    2.83e+03       0.012
  58                   JUNCTION      0.00  1222.07     2  09:09           0    2.87e+03       0.000
  59                   JUNCTION    138.91   138.91   262  19:00        75.3        96.2       0.000
  60                   JUNCTION      0.00    80.48   262  21:30           0        86.8       0.004
  61                   JUNCTION     42.86  1211.75   259  03:43        39.5    2.91e+03      -0.004
  62                   JUNCTION      0.00    23.13     2  09:09           0        38.7       0.000
  63                   JUNCTION    156.77   156.77   262  19:00        74.3        79.7       0.000
  64                   JUNCTION      0.00   251.04   262  21:00           0         173       0.002
  65                   JUNCTION      0.00    76.21   262  21:03           0        65.9       0.000
[...]
  31                       1871.84   1871.84   2229.24   6362.51         0.05
  32                       1673.23   1871.84   1673.23   5666.20      1667.17
  33                          2.31      2.31    410.76      0.01         0.01
  34                         36.73    410.76     36.73   5285.05        36.73
  35                        388.95    388.95   2508.52      0.01         0.01
  36                       2506.27   2508.52   2506.29   3238.93      2100.80
  37                       2506.79   2508.52   2506.80   2918.66      1917.34
  38                          0.01      0.01    262.91      0.01         0.01
  39                          0.01      0.01      0.01     65.15         0.01
  43                          0.01      0.01      0.01    120.35         0.01
  46                          0.01      0.01    135.30      0.01         0.01
  49                          0.01      0.01     33.13      0.01         0.01
  51                        135.28    135.29    135.29    110.99        69.53
  52                          0.01      0.01    873.23      0.01         0.01
  53                          0.01    873.23      0.01   7829.54         0.01
  54                          2.31    262.91      2.31   5174.96         2.31
  55                          0.01      0.01      2.31      0.01         0.01
  56                          0.01     36.73      0.01      2.53         0.01
  57                          0.01      0.01      0.01    115.27         0.01
  58                          0.01      0.01   1443.29      0.01         0.01
  60                          0.01      0.01      0.09      0.01         0.01
  61                          0.01      0.01      0.01    175.76         0.01
  62                       2503.88   2506.28   2503.93   3239.35      2086.09
  63                       2503.83   2503.88   2506.79   3418.93       170.75
  64                       2501.46   2503.88   2501.73   2979.74      1944.20
  65                       2497.98   2503.91   2498.02   3683.07      2293.41
  66                       2491.66   2501.73   2491.66   4032.22      2358.96
  67                       2491.50   2491.61   2498.02   3754.71       143.99
  68                       2258.90   2491.61   2258.90   6442.43      2202.01
  69                          0.01      0.01      0.01    113.23         0.01
  70                          0.01      0.01      0.09      0.01         0.01
  71                          0.01      0.09      0.01      0.01         0.01
  72                       2244.50   2258.90   2244.50   4291.17      2205.54
  73                       2244.81   2258.90   2244.81   4277.12      2203.13
  74                         36.72     36.72    719.69      0.01         0.01
  75                          0.01      0.01     60.46      0.01         0.01
  77                        719.69    719.69   1535.26   6335.08         0.01
  78                        719.67    719.67   2383.04    662.30       667.42
  87                          0.01      0.01    343.30      0.01         0.01
  88                          0.01      0.01      0.01     28.46         0.01
  94                       2229.24   2244.50   2229.24   4323.13      2193.44
  95                       2229.24   2229.24   2244.81   4334.48         8.41
  96                         60.36     60.46     60.37    118.89        33.16
  97                          0.01      0.01    526.24      0.01         0.01
  98                          0.01    526.24      0.01   7612.33         0.01
  99                          0.01      0.01    103.09      0.01         0.01
  105                         0.01      0.01      0.01    452.54         0.01
  107                         0.01      0.01      0.01     19.75         0.01
  108                       103.04    103.09    103.06    130.07        52.37
  109                         0.01      0.01    667.95      0.01         0.01
  110                         0.01    667.95      0.01   7620.03         0.01
  111                       151.88    409.78    151.88   4321.33       151.88
  112                         0.01      0.01    409.78      0.01         0.01
  113                         0.01      0.01    151.88      0.01         0.01
  116                      1607.80   1673.23   1607.80   4659.14      1600.77
  117                      1607.80   1673.23   1607.80   4659.14      1600.77
  118                      1535.31   1607.76   1535.31   4658.91      1528.23
  119                      1535.31   1535.31   1607.76   4658.91         1.31
  120                         0.01      0.01    619.23      0.01         0.01
  121                         0.01      0.01      0.01    214.36         0.01
  122                         0.15    151.88      0.15   3903.19         0.15
  123                         0.01     18.82      0.01   2836.48         0.01
  124                         0.01      0.01     18.82      0.01         0.01
  126                         0.01    619.23      0.01   7614.99         0.01
  129                      2176.99   2383.04   2176.99   6080.66      2176.99
  130                      2175.99   2383.04   2175.99   6083.76      2175.99
  131                         0.01      0.01    636.45      0.01         0.01
  132                         0.01      0.01      0.01    306.92         0.01
  133                       218.10    343.30    218.10   3873.97       218.10
  134                         0.01      0.01    218.10      0.01         0.01
  135                         0.74    218.10      0.74   4277.09         0.74
  136                         0.15      0.15      1.13      0.01         0.01
  137                         0.01      0.15      0.01    467.28         0.01
  138                         0.74      0.74    250.69      0.01         0.01
  139                         0.61      0.74      0.61     67.75         0.61
  140                         0.01      0.01      1.13      0.01         0.01
  141                         1.13      1.13      3.17      0.01         0.01
  144                         0.01      0.01      0.01    812.43         0.01
  145                         0.01      0.01      0.01    711.93         0.01
  146                       164.84    250.69    164.84   3870.92       164.84
  147                         0.61      0.61    164.84      0.01         0.01
  148                         3.61    164.84      3.61   4018.38         3.61
  149                         1.40     82.99      1.40   6727.50         1.40
  150                         0.01      0.01      5.81      0.01         0.01
  151                         0.01      1.40      0.01   7291.10         0.01
  152                         3.61      3.61    748.83      0.01         0.01
  153                         2.54      3.61      2.54    147.11         2.54
  154                         0.01      0.01     13.02      0.01         0.01
  155                         0.01      0.01      0.01      2.07         0.01
  158                       519.20    748.83    519.20   4444.26       519.20
  159                         2.54      2.54    519.20      0.01         0.01
  160                        23.12    519.20     23.12   4934.01        23.12
  161                         3.17      3.17     23.12      0.01         0.01
  162                         0.01      0.01      3.17      0.01         0.01
  163                         2.39     13.02      2.39   2094.86         2.39
  164                         0.01      0.01      2.39      0.01         0.01
  165                         0.01      2.39      0.01   1885.69         0.01
  166                         1.57    636.45      1.57   7615.06         1.57
  167                         0.01      0.01      1.58      0.01         0.01
  168                         1.58      1.58      9.44      0.01         0.01
  169                         9.44      9.44    677.43      0.01         0.01
  170                         8.08      9.44      8.08    315.82         8.08
  171                         0.01      0.01      0.01   6530.54         0.01
  173                         0.01      0.01    101.76      0.01         0.01
  174                         0.01      0.01      0.01    205.27         0.01
  176                         0.01      0.01      0.01    138.38         0.01
  180                       209.90    209.90   1443.29      0.06         0.05
  181                       342.56   1443.29    342.56   7484.53       342.46
  182                      1442.13   1443.29   1442.26   1734.60       888.16
  183                       101.76    101.76    147.94      0.01         0.01
  184                        97.98    101.76     97.98   1038.33        97.98
  185                        23.03     23.11     57.21      0.15         0.01
  186                         4.52     23.12      4.52   1362.00         4.52
  189                         0.01      0.01     28.39      0.01         0.01
  190                         0.01      0.01     60.60      0.01         0.01
  192                         0.01      0.01      0.01     41.77         0.01
  194                        18.86     18.87     18.87    439.09         1.48
  195                        28.39     28.39     45.07      0.01         0.01
  196                        60.58     60.59    321.83      0.02         0.01
  197                        60.59     60.59     62.30    106.02         4.97
  198                         0.01      0.01      0.01   1397.84         0.01
  199                         0.01      0.01      0.01   1909.03         0.01
  200                      1890.10   2176.99   1890.10   6086.66      1890.10
  201                      1890.10   1890.10   2175.99   6083.58         0.01
  202                      1374.11   1890.07   1374.11   6139.11      1374.11
  203                      1374.11   1890.07   1374.11   6139.11      1374.11
  204                        30.22    677.43     30.22   7615.96        30.22
  205                         8.08      8.08     30.22      0.01         0.01
  207                         0.01      0.01      0.01     16.22         0.01
  208                       286.86   1374.07    286.86   6123.69       286.86
  209                       286.86    286.86   1374.07   6123.69         0.01
  210                       286.89    286.89    384.33      0.01         0.01
  211                         5.43      5.43     57.21      0.01         0.01
  212                         4.52      4.52    189.55      0.01         0.01
  213                         3.48      4.52      3.48     16.66         3.48
  214                         0.01      0.01     48.27      0.01         0.01
  215                         0.01      0.01     24.83      0.01         0.01
  216                         0.01      0.01     48.27      0.01         0.01
  217                       438.67    438.68   2729.46    340.75       343.79
  218                       438.65    438.65   7875.24    204.84       209.16
  219                        24.83     48.27     24.83   1872.70        24.83
  220                         0.01     24.83      0.01   2454.44         0.01
  223                         0.01      0.01      0.01      2.95         0.01
  224                         0.01      0.01      0.01   1434.15         0.01
  225                         0.01      0.01      0.01   1983.66         0.01
  226                         0.01      0.01      0.01     88.07         0.01
  227                         0.01      0.01      0.01     88.07         0.01
  228                      2354.76   2727.73   2354.77   7152.07      2354.72
  229                      2359.95   2727.73   2359.96   7138.26      2359.90
  230                       903.15    903.15   7875.24    207.89       209.36
  231                      7875.22   7875.24   7875.22    796.15      3629.85
  232                        45.07     45.07     76.52      0.01         0.01
  233                        45.07     45.07     97.98      0.01         0.01
  234                        62.30     76.51     62.30   1372.10        62.11
  235                        76.50     76.50    121.61      0.01         0.01
  236                        97.97     97.97    147.95      0.01         0.01
  237                        97.98     97.98    186.86   4098.17        36.50
  240                         0.01      0.01      0.01     78.36         0.01
  241                         0.01      0.01      0.01     78.36         0.01
  242                         0.01      0.01      0.01   1090.98         0.01
  243                         0.01      0.01      0.01     49.84         0.01
  244                         0.01      0.01      0.01     49.84         0.01
  245                        62.29     62.29    121.61      0.01         0.01
  246                       121.59    121.60   2316.50      0.01         0.01
  247                       321.82    321.83    342.57   2338.28         0.20
  248                       321.81    321.82   1748.94      0.08         0.05
  249                       167.34    189.55    167.34   2196.43       167.34
  250                         3.48      3.48    167.34      0.01         0.01
  251                         0.01    167.38      0.01   3042.32         0.01
  253                         0.01      0.01      0.01     14.04         0.01
  255                         0.01      0.01     89.79      0.01         0.01
  256                         0.01      0.01      0.01      3.34         0.01
  265                       127.08    127.08    791.75      0.01         0.01
  266                      1803.32   2316.50   1803.32   7779.20      1796.80
  267                      1938.66   2316.50   1938.66   7712.62      1938.66
  275                         0.01      0.01      0.01   1703.55         0.01
  282                        16.10     89.38     16.15   3726.59        16.08
  283                         0.01      0.01     16.88      0.01         0.01
  284                         0.01      0.01      0.01     65.53         0.01
  285                         0.01      0.01      0.01   1808.46         0.01
  286                      2269.58   2354.77   2269.60   7152.46      2269.51
  287                      2269.59   2269.61   2359.96   7165.01         0.06
  288                      1807.16   2269.60   1807.17   7713.43      1807.11
  289                      1637.76   1807.10   1637.77   7157.63      1637.69
  290                      1634.26   1807.10   1634.27   7161.60      1634.19
  291                         0.01      5.43      0.01      0.01         0.01
  292                         0.01      0.01      5.43      0.01         0.01
  296                         0.01      0.01   5882.96      0.01         0.01
  299                      1409.78   1637.78   1409.79   7165.25      1409.71
  300                      1409.77   1409.78   1634.26   7161.73         0.06
  301                      1021.54   1409.78   1021.56   7161.28      1021.48
  302                      1012.25   1409.78   1012.27   7165.73      1012.19
  303                         0.01      0.01     70.03      0.01         0.01
  304                         0.01      0.01      0.01     45.43         0.01
  308                         1.61      1.74      1.61    505.69         1.61
  309                         1.61      1.61      1.74    505.69         0.01
  311                       209.89   1021.55    209.90   7167.77       209.82
  312                       209.89    209.90   1012.26   7165.78         0.07
  313                       209.90    209.90   1442.26      0.06         0.04
  314                         0.01      0.01     46.78      0.01         0.01
  317                         0.74      1.60      2.61   2365.61         0.04
  318                         0.01      1.60      0.01   2589.33         0.01
  319                       290.93   1442.26    290.93   7385.81       290.87
  320                       342.56    342.57   2109.92      0.08         0.05
  321                       147.93    147.95    177.22      0.01         0.01
  322                        65.05    186.87     65.05   3999.42        65.05
  323                       290.93    290.94   2109.92      0.08         0.03
  324                      1570.50   2109.92   1570.51   7660.12      1570.43
  325                      1278.23   1748.94   1278.23   6950.02      1272.54
  326                      1748.88   1748.94   1803.32   5298.30       351.56
  327                       154.28    154.28    702.23      0.01         0.01
  328                       176.90    177.22    182.52      2.87         3.78
  329                        65.05     65.05    177.22      0.01         0.01
  330                         0.01      0.01      0.01     23.36         0.01
  331                         2.61      2.61     66.58      0.01         0.01
  332                         2.61      2.61    178.19      0.01         0.01
  333                         0.01      0.01   6572.59      0.01         0.01
  334                       290.93    290.93    903.17      0.07         0.04
  335                         6.47      6.47     65.06      0.01         0.01
  336                        64.38     65.06     66.58      1.44         0.65
  337                        60.61     70.03     60.61   2191.30        60.61
  338                         0.01      0.01     60.64      0.01         0.01
  339                         0.01     60.64      0.01   2203.01         0.01
  340                         0.01      0.01     46.78      0.01         0.01
  341                         6.47     46.78      6.47   2535.19         6.47
  342                         0.01      0.01      6.47      0.01         0.01
  343                         0.01      0.01   7286.05      0.01         0.01
  344                         0.01      0.01      6.47      0.01         0.01
  345                       903.14    903.16    985.09   7061.12         0.06
  346                      1278.22   1278.23   1570.51   6361.95         0.76
  347                       925.48   1278.23    925.49   7562.74       925.42
  348                      1696.54   1803.32   1696.55   6740.81      1696.47
  349                      1739.67   1938.66   1739.67   7292.07      1680.45
  350                      1710.46   1938.66   1710.46   7331.87      1710.26
  351                       985.08   1570.51    985.08   7563.04       985.01
  352                       925.48    985.09    925.50   7178.47       784.85
  353                       925.51    925.51   7886.44     79.41        86.46
  354                       925.49    925.50   1696.55   7730.81        15.31
  355                      1696.54   1696.55   1739.67   5652.82       676.96
  356                       809.48    809.48   7886.44      0.01         0.01
  357                      7886.42   7886.44   7886.42   7886.69      7704.48
  358                      1710.45   1739.67   1710.46   5192.92      1706.82
  359                       463.00   1710.46    463.00   7664.64       462.99
  360                        66.58     66.58    182.52      0.01         0.01
  361                       182.52    182.52    809.48      0.01         0.01
  362                        66.58     66.58     76.30      0.01         0.01
  363                        76.30     76.30    178.19     71.93        71.01
  364                       110.04    110.04   6698.71      0.01         0.01
  365                      6572.59   6572.59   7286.05      0.01         0.01
  366                        76.29    463.01     76.29   2108.64        76.28
  367                       463.01    463.01    809.48      0.01         0.01
  368                        74.01     74.01   7874.47    362.46         0.01
  369                         0.01      0.01   7886.42   1967.84         0.01
  370                        14.41     14.41   5881.30     51.74         0.01
  

  Analysis begun on:  Wed Apr 15 00:00:58 2020
  Analysis ended on:  Wed Apr 15 00:21:05 2020
  Total elapsed time: 00:20:07