
  EPA STORM WATER MANAGEMENT MODEL - VERSION 5.1 (Build 5.1.013)
  --------------------------------------------------------------

  Template input file for Gottesacker karst system.  
  Based on input files created by Zhao Chen. 
  Modified by Chloe Fandel: 
  
  WARNING 08: elevation drop exceeds length for Conduit 2
  WARNING 04: minimum elevation drop used for Conduit 3
  WARNING 04: minimum elevation drop used for Conduit 6
  WARNING 08: elevation drop exceeds length for Conduit 7
  WARNING 08: elevation drop exceeds length for Conduit 8
  WARNING 04: minimum elevation drop used for Conduit 15
  WARNING 04: minimum elevation drop used for Conduit 17
  WARNING 04: minimum elevation drop used for Conduit 18
  WARNING 04: minimum elevation drop used for Conduit 28
  
  *********************************************************
  NOTE: The summary statistics displayed in this report are
  based on results found at every computational time step,  
  not just on results from each reporting time step.
  *********************************************************
  
  ****************
  Analysis Options
  ****************
  Flow Units ............... LPS
  Process Models:
    Rainfall/Runoff ........ YES
    RDII ................... NO
    Snowmelt ............... NO
    Groundwater ............ NO
    Flow Routing ........... YES
    Ponding Allowed ........ NO
    Water Quality .......... NO
  Infiltration Method ...... HORTON
  Flow Routing Method ...... DYNWAVE
  Surcharge Method ......... EXTRAN
  Starting Date ............ 11/14/2013 00:00:00
  Ending Date .............. 10/11/2014 00:00:00
  Antecedent Dry Days ...... 0.0
  Report Time Step ......... 01:00:00
  Wet Time Step ............ 00:30:00
  Dry Time Step ............ 01:00:00
  Routing Time Step ........ 30.00 sec
  Variable Time Step ....... YES
  Maximum Trials ........... 8
  Number of Threads ........ 4
  Head Tolerance ........... 0.001524 m
  
  
  **************************        Volume         Depth
  Runoff Quantity Continuity     hectare-m            mm
  **************************     ---------       -------
  Total Precipitation ......      1876.070       691.193
  Evaporation Loss .........         0.000         0.000
  Infiltration Loss ........         0.000         0.000
  Surface Runoff ...........      1873.345       690.189
  Final Storage ............         3.029         1.116
  Continuity Error (%) .....        -0.016
  
  
  **************************        Volume        Volume
  Flow Routing Continuity        hectare-m      10^6 ltr
  **************************     ---------     ---------
  Dry Weather Inflow .......         0.000         0.000
  Wet Weather Inflow .......      1873.349     18733.688
  Groundwater Inflow .......         0.000         0.000
  RDII Inflow ..............         0.000         0.000
  External Inflow ..........         1.698        16.982
  External Outflow .........      3878.937     38789.773
  Flooding Loss ............       513.663      5136.685
  Evaporation Loss .........         0.000         0.000
  Exfiltration Loss ........         0.000         0.000
  Initial Stored Volume ....         0.000         0.000
  Final Stored Volume ......         2.708        27.085
  Continuity Error (%) .....      -134.411
  
  
  *************************
  Highest Continuity Errors
  *************************
  Node 14 (-2427.61%)
  Node 16 (-1515.00%)
  Node 13 (-29.78%)
  Node 11 (-29.32%)
  Node 15 (-6.71%)
  
  
  ***************************
  Time-Step Critical Elements
  ***************************
  Link 18 (52.71%)
  Link 31 (46.86%)
  
  
  ********************************
  Highest Flow Instability Indexes
  ********************************
  Link 13 (126)
  Link 18 (113)
  Link 15 (112)
  Link 19 (105)
  Link 14 (87)
  
  
  *************************
  Routing Time Step Summary
  *************************
  Minimum Time Step           :     0.50 sec
  Average Time Step           :    10.61 sec
  Maximum Time Step           :    30.00 sec
  Percent in Steady State     :     0.30
  Average Iterations per Step :     6.98
  Percent Not Converging      :    79.86
  
  
  ***************************
  Subcatchment Runoff Summary
  ***************************
  
  ------------------------------------------------------------------------------------------------------------------------------
                            Total      Total      Total      Total     Imperv       Perv      Total       Total     Peak  Runoff
                           Precip      Runon       Evap      Infil     Runoff     Runoff     Runoff      Runoff   Runoff   Coeff
  Subcatchment                 mm         mm         mm         mm         mm         mm         mm    10^6 ltr      LPS
  ------------------------------------------------------------------------------------------------------------------------------
  S1                         0.00       0.00       0.00       0.00       0.00       0.00       0.00        0.00     0.00   0.000
  S2                         0.00       0.00       0.00       0.00       0.00       0.00       0.00        0.00     0.00   0.000
  S4                         0.00       0.00       0.00       0.00       0.00       0.00       0.00        0.00     0.00   0.000
  S7                         0.00       0.00       0.00       0.00       0.00       0.00       0.00        0.00     0.00   0.000
  S8                      1031.42       0.00       0.00       0.00    1032.06       0.00    1032.06       64.50    55.73   1.001
  S9                      1025.22       0.00       0.00       0.00    1025.31       0.00    1025.31      371.68   262.35   1.000
  S10                     1385.10       0.00       0.00       0.00    1385.52       0.00    1385.52      498.79   466.98   1.000
  S11                     1067.22       0.00       0.00       0.00    1067.43       0.00    1067.43      304.22   223.10   1.000
  S12                      986.20       0.00       0.00       0.00     986.34       0.00     986.34      367.42   312.39   1.000
  S13                     1095.88       0.00       0.00       0.00    1096.03       0.00    1096.03      482.26   414.04   1.000
  S14                      977.89       0.00       0.00       0.00     978.35       0.00     978.35      134.52   153.20   1.000
  S15                     1323.24       0.00       0.00       0.00    1324.30       0.00    1324.30      115.88   125.53   1.001
  S16                     1001.87       0.00       0.00       0.00    1002.10       0.00    1002.10      283.10   278.35   1.000
  S17                     1351.68       0.00       0.00       0.00    1352.75       0.00    1352.75      121.75   137.41   1.001
  S18                      973.25       0.00       0.00       0.00     974.33       0.00     974.33       29.23    35.76   1.001
  S19                     1574.01       0.00       0.00       0.00    1574.39       0.00    1574.39      625.82   478.24   1.000
  S20                     1292.86       0.00       0.00       0.00    1293.18       0.00    1293.18      484.95   498.34   1.000
  S21                     1129.79       0.00       0.00       0.00    1130.01       0.00    1130.01      449.18   373.16   1.000
  S22                     1148.78       0.00       0.00       0.00    1148.42       0.00    1148.42     1714.03  1002.50   1.000
  S23                      770.39       0.00       0.00       0.00     770.36       0.00     770.36      381.33   362.19   1.000
  S24                        0.00       0.00       0.00       0.00       0.00       0.00       0.00        0.00     0.00   0.000
  S25                      809.29       0.00       0.00       0.00     807.48       0.00     807.48    12090.03  4540.50   0.998
  S26                     1369.60       0.00       0.00       0.00    1371.06       0.00    1371.06       82.26    92.06   1.001
  S27                       22.11       0.00       0.00       0.00      21.88       0.00      21.88       81.55    15.50   0.989
  S28                     1359.91       0.00       0.00       0.00    1361.72       0.00    1361.72       51.06    60.01   1.001
  S29                        0.00       0.00       0.00       0.00       0.00       0.00       0.00        0.00     0.00   0.000
  S30                        0.00       0.00       0.00       0.00       0.00       0.00       0.00        0.00     0.00   0.000
  
  
  ******************
  Node Depth Summary
  ******************
  
  ---------------------------------------------------------------------------------
                                 Average  Maximum  Maximum  Time of Max    Reported
                                   Depth    Depth      HGL   Occurrence   Max Depth
  Node                 Type       Meters   Meters   Meters  days hr:min      Meters
  ---------------------------------------------------------------------------------
  0                    JUNCTION     0.00     0.00  1872.50     0  00:00        0.00
  1                    JUNCTION     0.00     0.00  1707.50     0  00:00        0.00
  2                    JUNCTION     0.00     0.00  1735.00     0  00:00        0.00
  3                    JUNCTION     0.00     0.00  1707.50     0  00:00        0.00
  4                    JUNCTION     0.00     0.00  1735.00     0  00:00        0.00
  5                    JUNCTION     0.00     0.00  1762.50     0  00:00        0.00
  6                    JUNCTION    18.38    68.52  1501.02   227  16:44       66.51
  7                    JUNCTION     0.01     0.07  1955.07   259  03:03        0.07
  8                    JUNCTION     0.02     0.12  1927.62   259  03:01        0.12
  9                    JUNCTION     0.03     0.16  1762.66   262  21:00        0.16
  10                   JUNCTION     0.08     0.38  1790.38   259  03:13        0.38
  11                   JUNCTION    37.85    55.03  1680.03   262  20:49       54.93
  12                   JUNCTION     0.03     0.18  1707.68   262  20:59        0.17
  13                   JUNCTION    10.41    27.53  1680.03   262  20:27       27.42
  14                   JUNCTION     0.00     0.05  1680.05   262  20:27        0.02
  15                   JUNCTION    10.41    27.52  1680.02   262  20:57       27.38
  16                   JUNCTION     0.00     0.01  1680.01   262  20:24        0.01
  17                   JUNCTION     0.27     0.44  1652.94   235  20:45        0.42
  18                   JUNCTION    50.07   150.22  1500.22   227  16:44      149.01
  19                   JUNCTION     0.03     0.18  1680.18   262  21:01        0.18
  20                   JUNCTION     0.32     0.58  1543.08   262  21:06        0.58
  21                   JUNCTION    77.93   204.00  1499.00   118  15:33      204.00
  22                   JUNCTION    55.04    66.87  1554.37   221  16:03       55.62
  23                   JUNCTION     0.00     0.00  1570.00     0  00:00        0.00
  24                   JUNCTION    13.86    90.37  1192.87   237  07:00       90.36
  25                   JUNCTION    10.46    74.98  1177.48   237  07:00       74.98
  26                   JUNCTION    17.49    19.84  1039.84   237  07:00       19.84
  27                   OUTFALL      0.25     1.00  1121.00   237  03:29        1.00
  28                   OUTFALL      0.35     0.66  1080.66   237  07:00        0.66
  29                   OUTFALL      0.36     0.48  1035.48   237  07:00        0.48
  
  
  *******************
  Node Inflow Summary
  *******************
  
  -------------------------------------------------------------------------------------------------
                                  Maximum  Maximum                  Lateral       Total        Flow
                                  Lateral    Total  Time of Max      Inflow      Inflow     Balance
                                   Inflow   Inflow   Occurrence      Volume      Volume       Error
  Node                 Type           LPS      LPS  days hr:min    10^6 ltr    10^6 ltr     Percent
  -------------------------------------------------------------------------------------------------
  0                    JUNCTION      0.00     0.00     0  00:00           0           0       0.000 ltr
  1                    JUNCTION      0.00     0.00     0  00:00           0           0       0.000 ltr
  2                    JUNCTION      0.00     0.00     0  00:00           0           0       0.000 ltr
  3                    JUNCTION      0.00     0.00     0  00:00           0           0       0.000 ltr
  4                    JUNCTION      0.00     0.00     0  00:00           0           0       0.000 ltr
  5                    JUNCTION      0.00     0.00     0  00:00           0           0       0.000 ltr
  6                    JUNCTION      0.00  4447.05   262  21:30           0         642       0.000
  7                    JUNCTION     56.81    56.81   259  03:00        66.6        66.6      -0.117
  8                    JUNCTION    263.33   263.33   259  03:00         374         374       0.000
  9                    JUNCTION    467.05   467.05   262  21:00         499         499       0.000
  10                   JUNCTION    224.06   542.49   259  03:00         306         746       0.013
  11                   JUNCTION    312.84  1999.86     2  11:53         369    1.63e+03     -22.672
  12                   JUNCTION    414.38   414.38   262  21:00         484         484       0.000
  13                   JUNCTION    153.30 26460.65   221  16:03         135    1.84e+04     -22.946
  14                   JUNCTION    125.63   582.22   262  20:51         116         641     -96.044
  15                   JUNCTION    278.86  8912.75   221  16:03         285    2.62e+04      -6.288
  16                   JUNCTION    137.49   137.60   262  21:00         122         122     -93.808
  17                   JUNCTION     37.29  2568.95   262  20:57          31     2.8e+04      -0.001
  18                   JUNCTION    478.24  3971.72   262  21:30         626    2.99e+03      -0.417
  19                   JUNCTION    498.34   498.34   262  21:00         485         485      -0.000
  20                   JUNCTION    373.44  5669.52   221  16:04         450    2.93e+04      -0.022
  21                   JUNCTION   1002.84  4861.11   259  03:04    1.72e+03    3.33e+04      -0.013
  22                   JUNCTION    362.19  1122.67   221  16:04         381         882       1.815
  23                   JUNCTION      0.00     0.00     0  00:00           0           0       0.000 ltr
  24                   JUNCTION   4540.53  6078.10   237  07:00    1.21e+04    3.86e+04      -0.001
  25                   JUNCTION     92.06  1311.10   237  07:00        82.3    1.13e+04      -0.001
  26                   JUNCTION     15.50  1055.12   237  07:00        81.5    1.71e+04       0.006
  27                   OUTFALL      60.01  3799.22   237  07:00        51.1    1.03e+04       0.000
  28                   OUTFALL       0.00  1311.02   237  07:00           0    1.13e+04       0.000
  29                   OUTFALL       0.00  1055.12   237  07:00           0    1.71e+04       0.000
  
  
  **********************
  Node Surcharge Summary
  **********************
  
  Surcharging occurs when water rises above the top of the highest conduit.
  ---------------------------------------------------------------------
                                               Max. Height   Min. Depth
                                   Hours       Above Crown    Below Rim
  Node                 Type      Surcharged         Meters       Meters
  ---------------------------------------------------------------------
  6                    JUNCTION     1551.10         64.518        0.000
  11                   JUNCTION     7884.23         51.032        0.000
  13                   JUNCTION     3481.78         23.525        0.000
  15                   JUNCTION     3375.63         23.518        0.000
  18                   JUNCTION     2261.32        146.222        0.000
  21                   JUNCTION     3104.93        200.000        0.000
  22                   JUNCTION     7855.52         62.874        0.000
  24                   JUNCTION     4051.61         89.368        0.000
  25                   JUNCTION     3735.83         73.981        0.000
  26                   JUNCTION     7880.66         18.836        0.000
  
  
  *********************
  Node Flooding Summary
  *********************
  
  Flooding refers to all water that overflows a node, whether it ponds or not.
  --------------------------------------------------------------------------
                                                             Total   Maximum
                                 Maximum   Time of Max       Flood    Ponded
                        Hours       Rate    Occurrence      Volume     Depth
  Node                 Flooded       LPS   days hr:min    10^6 ltr    Meters
  --------------------------------------------------------------------------
  21                   1396.31   3270.36    259  03:04    5136.634   200.000
  
  
  ***********************
  Outfall Loading Summary
  ***********************
  
  -----------------------------------------------------------
                         Flow       Avg       Max       Total
                         Freq      Flow      Flow      Volume
  Outfall Node           Pcnt       LPS       LPS    10^6 ltr
  -----------------------------------------------------------
  27                    81.08    605.63   3799.22   10333.565
  28                    99.73    485.47   1311.02   11349.288
  29                    99.70    653.83   1055.12   17106.743
  -----------------------------------------------------------
  System                93.50   1744.93   1055.12   38789.596
  
  
  ********************
  Link Flow Summary
  ********************
  
  -----------------------------------------------------------------------------
                                 Maximum  Time of Max   Maximum    Max/    Max/
                                  |Flow|   Occurrence   |Veloc|    Full    Full
  Link                 Type          LPS  days hr:min     m/sec    Flow   Depth
  -----------------------------------------------------------------------------
  0                    CONDUIT      0.00     0  00:00      0.00    0.00    0.00
  1                    CONDUIT      0.00     0  00:00      0.00    0.00    0.50
  2                    CONDUIT      0.00     0  00:00      0.00    0.00    0.00
  3                    CONDUIT      0.00     0  00:00      0.00    0.00    0.00
  4                    CONDUIT   4447.05   262  21:30      0.70    0.10    1.00
  5                    CONDUIT   3616.85   262  21:30      0.36    0.05    1.00
  6                    CONDUIT      0.00     0  00:00      0.00    0.00    0.00
  7                    CONDUIT      0.00     0  00:00      0.00    0.00    0.00
  8                    CONDUIT      0.00     0  00:00      0.00    0.00    0.00
  9                    CONDUIT     56.10   259  03:03      0.24    0.00    0.06
  10                   CONDUIT    262.85   259  03:01      0.82    0.00    0.06
  11                   CONDUIT    533.24   259  03:13      0.92    0.31    0.69
  12                   CONDUIT    465.75   262  21:00      0.07    0.00    0.52
  13                   CONDUIT   2693.77   221  16:04      6.19    0.04    1.00
  14                   CONDUIT  26456.18   221  16:03    >50.00    0.00    0.51
  15                   CONDUIT   8903.60   221  16:03      1.00   29.36    1.00
  16                   CONDUIT    457.82   262  20:51     38.64    0.00    0.03
  17                   CONDUIT      0.49   262  20:27      0.04    0.00    0.01
  18                   CONDUIT   2540.42   235  20:45      4.27  258.44    0.72
  19                   CONDUIT   2874.86   242  23:00     10.90    0.00    0.50
  20                   CONDUIT      5.07   262  20:57      0.02    0.00    0.05
  21                   CONDUIT   2586.11   235  20:48      4.28    0.02    0.12
  22                   CONDUIT   3774.09   262  21:06      2.17    0.05    0.57
  23                   CONDUIT   4143.11   221  16:04      0.71    0.09    0.57
  24                   CONDUIT   1705.90   157  01:26      2.17    1.39    1.00
  25                   CONDUIT    496.07   262  21:01      0.07    0.00    0.52
  26                   CONDUIT      0.00     0  00:00      0.00    0.00    0.50
  27                   CONDUIT   1040.10   237  07:00      1.32    1.35    1.00
  28                   CONDUIT   1266.50   237  07:00      1.61  223.16    1.00
  29                   CONDUIT   3771.46   237  07:00      4.80    1.99    1.00
  30                   CONDUIT   1311.02   237  07:00      1.88    2.05    0.83
  31                   CONDUIT   1055.12   237  07:00      1.70    0.46    0.74
  
  
  ***************************
  Flow Classification Summary
  ***************************
  
  -------------------------------------------------------------------------------------
                      Adjusted    ---------- Fraction of Time in Flow Class ---------- 
                       /Actual         Up    Down  Sub   Sup   Up    Down  Norm  Inlet 
  Conduit               Length    Dry  Dry   Dry   Crit  Crit  Crit  Crit  Ltd   Ctrl  
  -------------------------------------------------------------------------------------
  0                       1.00   1.00  0.00  0.00  0.00  0.00  0.00  0.00  0.00  0.00
  1                       1.00   0.00  1.00  0.00  0.00  0.00  0.00  0.00  0.00  0.00
  2                       1.00   1.00  0.00  0.00  0.00  0.00  0.00  0.00  0.00  0.00
  3                       1.00   1.00  0.00  0.00  0.00  0.00  0.00  0.00  0.00  0.00
  4                       1.00   0.00  0.53  0.00  0.47  0.00  0.00  0.00  0.37  0.00
  5                       1.00   0.00  0.00  0.00  1.00  0.00  0.00  0.00  0.60  0.00
  6                       1.00   1.00  0.00  0.00  0.00  0.00  0.00  0.00  0.00  0.00
  7                       1.00   1.00  0.00  0.00  0.00  0.00  0.00  0.00  0.00  0.00
  8                       1.00   1.00  0.00  0.00  0.00  0.00  0.00  0.00  0.00  0.00
  9                       1.00   0.00  0.02  0.00  0.98  0.00  0.00  0.00  0.99  0.00
  10                      1.00   0.00  0.00  0.00  1.00  0.00  0.00  0.00  0.99  0.00
  11                      1.00   0.00  0.00  0.00  1.00  0.00  0.00  0.00  0.99  0.00
  12                      1.00   0.00  0.00  0.00  1.00  0.00  0.00  0.00  0.99  0.00
  13                      1.00   0.00  0.00  0.00  1.00  0.00  0.00  0.00  0.00  0.00
  14                      1.00   0.00  0.70  0.00  0.30  0.00  0.00  0.00  0.87  0.00
  15                      1.00   0.00  0.00  0.00  1.00  0.00  0.00  0.00  0.02  0.00
  16                      1.00   0.07  0.08  0.00  0.08  0.77  0.00  0.00  0.01  0.00
  17                      1.00   0.51  0.00  0.00  0.49  0.00  0.00  0.00  0.21  0.00
  18                      1.00   0.00  0.00  0.00  0.58  0.41  0.00  0.00  0.00  0.00
  19                      1.00   0.00  0.62  0.00  0.38  0.00  0.00  0.00  0.97  0.00
  20                      1.00   0.00  0.65  0.00  0.35  0.00  0.00  0.00  0.99  0.00
  21                      1.00   0.00  0.00  0.00  0.00  1.00  0.00  0.00  0.99  0.00
  22                      1.00   0.00  0.00  0.00  1.00  0.00  0.00  0.00  0.99  0.00
  23                      1.00   0.00  0.00  0.00  1.00  0.00  0.00  0.00  0.00  0.00
  24                      1.00   0.00  0.00  0.00  1.00  0.00  0.00  0.00  0.53  0.00
  25                      1.00   0.00  0.00  0.00  1.00  0.00  0.00  0.00  0.99  0.00
  26                      1.00   0.00  1.00  0.00  0.00  0.00  0.00  0.00  0.00  0.00
  27                      1.00   0.00  0.00  0.00  1.00  0.00  0.00  0.00  0.46  0.00
  28                      1.00   0.00  0.00  0.00  1.00  0.00  0.00  0.00  0.00  0.00
  29                      1.00   0.00  0.46  0.00  0.53  0.00  0.00  0.00  0.23  0.00
  30                      1.00   0.00  0.00  0.00  1.00  0.00  0.00  0.00  0.00  0.00
  31                      1.00   0.00  0.00  0.00  1.00  0.00  0.00  0.00  0.00  0.00
  
  
  *************************
  Conduit Surcharge Summary
  *************************
  
  ----------------------------------------------------------------------------
                                                           Hours        Hours 
                         --------- Hours Full --------   Above Full   Capacity
  Conduit                Both Ends  Upstream  Dnstream   Normal Flow   Limited
  ----------------------------------------------------------------------------
  4                        1551.07   1551.07   2258.73      0.01         0.01
  5                        2261.30   2261.30   3104.93      0.01         0.01
  11                          0.01      0.01   7885.43      0.01         0.01
  12                          0.01      0.01   7860.96      0.01         0.01
  13                       3369.06   3369.06   7884.23      0.01         0.01
  14                          0.01      0.01   3375.89      0.01         0.01
  15                       3342.55   3366.42   3360.28   5684.47       994.38
  18                          0.01   6013.76      0.01   7885.52         0.01
  19                          0.01      0.01   3360.40      0.01         0.01
  22                          0.01      0.01   3104.93      0.01         0.01
  23                          0.01      0.01   7855.52      0.01         0.01
  24                       3610.38   3610.38   4051.56   3137.08      3096.45
  25                          0.01      0.01   7855.52      0.01         0.01
  27                       4051.56   4051.56   7880.66   2543.84      3020.55
  28                       3735.74   4051.56   3735.74   7882.44      3735.74
  29                          5.89      5.89   5144.92    235.35         0.01
  30                          0.01   3735.73      0.01   3477.63         0.01
  31                          0.01      0.01   7880.59      0.01         0.01
  

  Analysis begun on:  Wed Apr 15 03:54:08 2020
  Analysis ended on:  Wed Apr 15 03:57:55 2020
  Total elapsed time: 00:03:47