
  EPA STORM WATER MANAGEMENT MODEL - VERSION 5.1 (Build 5.1.013)
  --------------------------------------------------------------

  Template input file for Gottesacker karst system.  
  Based on input files created by Zhao Chen. 
  Modified by Chloe Fandel: 
  
  WARNING 08: elevation drop exceeds length for Conduit 2
  WARNING 04: minimum elevation drop used for Conduit 3
  WARNING 04: minimum elevation drop used for Conduit 6
  WARNING 08: elevation drop exceeds length for Conduit 7
  WARNING 08: elevation drop exceeds length for Conduit 8
  WARNING 04: minimum elevation drop used for Conduit 15
  WARNING 04: minimum elevation drop used for Conduit 17
  WARNING 04: minimum elevation drop used for Conduit 18
  WARNING 04: minimum elevation drop used for Conduit 28
  
  *********************************************************
  NOTE: The summary statistics displayed in this report are
  based on results found at every computational time step,  
  not just on results from each reporting time step.
  *********************************************************
  
  ****************
  Analysis Options
  ****************
  Flow Units ............... LPS
  Process Models:
    Rainfall/Runoff ........ YES
    RDII ................... NO
    Snowmelt ............... NO
    Groundwater ............ NO
    Flow Routing ........... YES
    Ponding Allowed ........ NO
    Water Quality .......... NO
  Infiltration Method ...... HORTON
  Flow Routing Method ...... DYNWAVE
  Surcharge Method ......... EXTRAN
  Starting Date ............ 11/14/2013 00:00:00
  Ending Date .............. 10/11/2014 00:00:00
  Antecedent Dry Days ...... 0.0
  Report Time Step ......... 01:00:00
  Wet Time Step ............ 00:30:00
  Dry Time Step ............ 01:00:00
  Routing Time Step ........ 30.00 sec
  Variable Time Step ....... YES
  Maximum Trials ........... 8
  Number of Threads ........ 4
  Head Tolerance ........... 0.001524 m
  
  
  **************************        Volume         Depth
  Runoff Quantity Continuity     hectare-m            mm
  **************************     ---------       -------
  Total Precipitation ......      1876.070       691.193
  Evaporation Loss .........         0.000         0.000
  Infiltration Loss ........         0.000         0.000
  Surface Runoff ...........      1873.345       690.189
  Final Storage ............         3.029         1.116
  Continuity Error (%) .....        -0.016
  
  
  **************************        Volume        Volume
  Flow Routing Continuity        hectare-m      10^6 ltr
  **************************     ---------     ---------
  Dry Weather Inflow .......         0.000         0.000
  Wet Weather Inflow .......      1873.353     18733.721
  Groundwater Inflow .......         0.000         0.000
  RDII Inflow ..............         0.000         0.000
  External Inflow ..........         1.698        16.982
  External Outflow .........      2821.431     28214.604
  Flooding Loss ............       143.923      1439.247
  Evaporation Loss .........         0.000         0.000
  Exfiltration Loss ........         0.000         0.000
  Initial Stored Volume ....         0.000         0.000
  Final Stored Volume ......         0.896         8.962
  Continuity Error (%) .....       -58.196
  
  
  *************************
  Highest Continuity Errors
  *************************
  Node 14 (-1467.69%)
  Node 16 (-53.58%)
  Node 22 (33.23%)
  Node 13 (10.33%)
  Node 15 (-9.42%)
  
  
  ***************************
  Time-Step Critical Elements
  ***************************
  Link 31 (77.44%)
  Link 18 (20.38%)
  Link 29 (1.06%)
  
  
  ********************************
  Highest Flow Instability Indexes
  ********************************
  Link 14 (110)
  Link 18 (97)
  Link 19 (85)
  Link 15 (85)
  Link 13 (85)
  
  
  *************************
  Routing Time Step Summary
  *************************
  Minimum Time Step           :     0.50 sec
  Average Time Step           :    12.60 sec
  Maximum Time Step           :    30.00 sec
  Percent in Steady State     :     0.30
  Average Iterations per Step :     7.26
  Percent Not Converging      :    86.53
  
  
  ***************************
  Subcatchment Runoff Summary
  ***************************
  
  ------------------------------------------------------------------------------------------------------------------------------
                            Total      Total      Total      Total     Imperv       Perv      Total       Total     Peak  Runoff
                           Precip      Runon       Evap      Infil     Runoff     Runoff     Runoff      Runoff   Runoff   Coeff
  Subcatchment                 mm         mm         mm         mm         mm         mm         mm    10^6 ltr      LPS
  ------------------------------------------------------------------------------------------------------------------------------
  S1                         0.00       0.00       0.00       0.00       0.00       0.00       0.00        0.00     0.00   0.000
  S2                         0.00       0.00       0.00       0.00       0.00       0.00       0.00        0.00     0.00   0.000
  S4                         0.00       0.00       0.00       0.00       0.00       0.00       0.00        0.00     0.00   0.000
  S7                         0.00       0.00       0.00       0.00       0.00       0.00       0.00        0.00     0.00   0.000
  S8                      1031.42       0.00       0.00       0.00    1032.06       0.00    1032.06       64.50    55.73   1.001
  S9                      1025.22       0.00       0.00       0.00    1025.31       0.00    1025.31      371.68   262.35   1.000
  S10                     1385.10       0.00       0.00       0.00    1385.52       0.00    1385.52      498.79   466.98   1.000
  S11                     1067.22       0.00       0.00       0.00    1067.43       0.00    1067.43      304.22   223.10   1.000
  S12                      986.20       0.00       0.00       0.00     986.34       0.00     986.34      367.42   312.39   1.000
  S13                     1095.88       0.00       0.00       0.00    1096.03       0.00    1096.03      482.26   414.04   1.000
  S14                      977.89       0.00       0.00       0.00     978.35       0.00     978.35      134.52   153.20   1.000
  S15                     1323.24       0.00       0.00       0.00    1324.30       0.00    1324.30      115.88   125.53   1.001
  S16                     1001.87       0.00       0.00       0.00    1002.10       0.00    1002.10      283.10   278.35   1.000
  S17                     1351.68       0.00       0.00       0.00    1352.75       0.00    1352.75      121.75   137.41   1.001
  S18                      973.25       0.00       0.00       0.00     974.33       0.00     974.33       29.23    35.76   1.001
  S19                     1574.01       0.00       0.00       0.00    1574.39       0.00    1574.39      625.82   478.24   1.000
  S20                     1292.86       0.00       0.00       0.00    1293.18       0.00    1293.18      484.95   498.34   1.000
  S21                     1129.79       0.00       0.00       0.00    1130.01       0.00    1130.01      449.18   373.16   1.000
  S22                     1148.78       0.00       0.00       0.00    1148.42       0.00    1148.42     1714.03  1002.50   1.000
  S23                      770.39       0.00       0.00       0.00     770.36       0.00     770.36      381.33   362.19   1.000
  S24                        0.00       0.00       0.00       0.00       0.00       0.00       0.00        0.00     0.00   0.000
  S25                      809.29       0.00       0.00       0.00     807.48       0.00     807.48    12090.03  4540.50   0.998
  S26                     1369.60       0.00       0.00       0.00    1371.06       0.00    1371.06       82.26    92.06   1.001
  S27                       22.11       0.00       0.00       0.00      21.88       0.00      21.88       81.55    15.50   0.989
  S28                     1359.91       0.00       0.00       0.00    1361.72       0.00    1361.72       51.06    60.01   1.001
  S29                        0.00       0.00       0.00       0.00       0.00       0.00       0.00        0.00     0.00   0.000
  S30                        0.00       0.00       0.00       0.00       0.00       0.00       0.00        0.00     0.00   0.000
  
  
  ******************
  Node Depth Summary
  ******************
  
  ---------------------------------------------------------------------------------
                                 Average  Maximum  Maximum  Time of Max    Reported
                                   Depth    Depth      HGL   Occurrence   Max Depth
  Node                 Type       Meters   Meters   Meters  days hr:min      Meters
  ---------------------------------------------------------------------------------
  0                    JUNCTION     0.00     0.00  1872.50     0  00:00        0.00
  1                    JUNCTION     0.00     0.00  1707.50     0  00:00        0.00
  2                    JUNCTION     0.00     0.00  1735.00     0  00:00        0.00
  3                    JUNCTION     0.00     0.00  1707.50     0  00:00        0.00
  4                    JUNCTION     0.00     0.00  1735.00     0  00:00        0.00
  5                    JUNCTION     0.00     0.00  1762.50     0  00:00        0.00
  6                    JUNCTION     0.39    68.46  1500.96   259  04:41       68.21
  7                    JUNCTION     0.02     0.12  1955.12   259  03:03        0.12
  8                    JUNCTION     0.02     0.12  1927.62   259  03:01        0.12
  9                    JUNCTION     0.07    26.42  1788.92   262  22:19       25.97
  10                   JUNCTION     0.08     1.70  1791.70   259  06:49        1.70
  11                   JUNCTION    33.40   163.92  1788.92   262  22:19      163.47
  12                   JUNCTION     0.54   166.50  1874.00   262  19:13       67.15
  13                   JUNCTION     5.38   204.00  1856.50   262  19:11      122.11
  14                   JUNCTION     1.06   204.00  1884.00   262  19:13       94.67
  15                   JUNCTION     5.36   204.00  1856.50   262  19:12      122.10
  16                   JUNCTION     1.05   164.04  1844.04   262  19:19       94.33
  17                   JUNCTION     3.70   201.00  1853.50   262  19:11      120.48
  18                   JUNCTION     4.84   150.95  1500.95   259  04:40      150.70
  19                   JUNCTION     0.22    21.03  1701.03   262  21:00       21.03
  20                   JUNCTION    20.55   201.00  1743.50   228  16:19      162.52
  21                   JUNCTION    23.03   201.00  1496.00   237  01:54      201.00
  22                   JUNCTION    75.62   201.00  1688.50   163  22:21      201.00
  23                   JUNCTION    12.54   201.00  1771.00   174  13:19      165.84
  24                   JUNCTION     9.53    90.17  1192.67   237  07:00       90.17
  25                   JUNCTION     7.16    74.82  1177.32   237  07:00       74.81
  26                   JUNCTION    17.00    19.83  1039.83   237  07:00       19.83
  27                   OUTFALL      0.17     1.00  1121.00   237  05:10        1.00
  28                   OUTFALL      0.28     0.66  1080.66   237  07:00        0.66
  29                   OUTFALL      0.32     0.48  1035.48   237  07:00        0.48
  
  
  *******************
  Node Inflow Summary
  *******************
  
  -------------------------------------------------------------------------------------------------
                                  Maximum  Maximum                  Lateral       Total        Flow
                                  Lateral    Total  Time of Max      Inflow      Inflow     Balance
                                   Inflow   Inflow   Occurrence      Volume      Volume       Error
  Node                 Type           LPS      LPS  days hr:min    10^6 ltr    10^6 ltr     Percent
  -------------------------------------------------------------------------------------------------
  0                    JUNCTION      0.00     0.00     0  00:00           0           0       0.000 ltr
  1                    JUNCTION      0.00     0.00     0  00:00           0           0       0.000 ltr
  2                    JUNCTION      0.00     0.00     0  00:00           0           0       0.000 ltr
  3                    JUNCTION      0.00     0.00     0  00:00           0           0       0.000 ltr
  4                    JUNCTION      0.00     0.00     0  00:00           0           0       0.000 ltr
  5                    JUNCTION      0.00     0.00     0  00:00           0           0       0.000 ltr
  6                    JUNCTION      0.00  1186.90   259  03:00           0         109       0.000
  7                    JUNCTION     56.81    56.81   259  03:00        66.6        66.6      -0.068
  8                    JUNCTION    263.34   263.34   259  03:00         374         374       0.000
  9                    JUNCTION    467.05  3241.45   262  19:11         499         501      -0.007
  10                   JUNCTION    224.06   542.60   259  03:00         306         746       0.009
  11                   JUNCTION    312.85  3876.19   262  19:10         369    1.62e+03      -0.820
  12                   JUNCTION    414.391335744.10   262  19:13         484         511       0.000
  13                   JUNCTION    153.30600516.06   262  19:11         135    1.19e+04      11.523
  14                   JUNCTION    125.632528590.37   262  19:13         116         654     -93.621
  15                   JUNCTION    278.87287469.93   262  19:12         285    1.13e+04      -8.606
  16                   JUNCTION    137.49126640.27   262  19:16         122         381     -34.887
  17                   JUNCTION     37.30 50405.94   262  19:08          31    1.25e+04       0.249
  18                   JUNCTION    478.24  1399.88   262  21:00         626    1.41e+03      -0.225
  19                   JUNCTION    498.34   859.41   262  19:12         485         485       0.730
  20                   JUNCTION    373.44  9300.64   222  06:14         450     1.4e+04       2.530
  21                   JUNCTION   1002.84  2391.22   262  21:00    1.72e+03    1.66e+04       0.077
  22                   JUNCTION    362.19113248.60   256  17:14         381    3.82e+03      49.764
  23                   JUNCTION      0.00 43383.81   272  12:10           0        19.8       0.000
  24                   JUNCTION   4540.53  6071.05   237  07:00    1.21e+04     2.8e+04       0.000
  25                   JUNCTION     92.06  1309.85   237  07:00        82.3    7.74e+03      -0.003
  26                   JUNCTION     15.50  1054.46   237  07:00        81.5    1.36e+04       0.007
  27                   OUTFALL      60.01  3794.10   237  07:00        51.1    6.91e+03       0.000
  28                   OUTFALL       0.00  1309.78   237  07:00           0    7.74e+03       0.000
  29                   OUTFALL       0.00  1054.46   237  07:00           0    1.36e+04       0.000
  
  
  **********************
  Node Surcharge Summary
  **********************
  
  Surcharging occurs when water rises above the top of the highest conduit.
  ---------------------------------------------------------------------
                                               Max. Height   Min. Depth
                                   Hours       Above Crown    Below Rim
  Node                 Type      Surcharged         Meters       Meters
  ---------------------------------------------------------------------
  6                    JUNCTION       37.67         64.456        0.000
  9                    JUNCTION       11.88         22.415        0.000
  11                   JUNCTION     7882.75        159.919        0.000
  12                   JUNCTION       94.84        162.503        0.000
  13                   JUNCTION     1538.27        200.000        0.000
  14                   JUNCTION      142.13        200.000        0.000
  15                   JUNCTION     1511.24        200.000        0.000
  16                   JUNCTION      155.67        163.037        0.000
  17                   JUNCTION      730.26        200.000        0.000
  18                   JUNCTION      371.52        146.952        0.000
  19                   JUNCTION       97.64         20.034        0.000
  20                   JUNCTION     1332.76        200.000        0.000
  21                   JUNCTION     1926.09        200.000        0.000
  22                   JUNCTION     7879.82        200.000        0.000
  23                   JUNCTION     1211.15        200.000        0.000
  24                   JUNCTION     2753.99         89.172        0.000
  25                   JUNCTION     2291.79         73.816        0.000
  26                   JUNCTION     7879.50         18.832        0.000
  
  
  *********************
  Node Flooding Summary
  *********************
  
  Flooding refers to all water that overflows a node, whether it ponds or not.
  --------------------------------------------------------------------------
                                                             Total   Maximum
                                 Maximum   Time of Max       Flood    Ponded
                        Hours       Rate    Occurrence      Volume     Depth
  Node                 Flooded       LPS   days hr:min    10^6 ltr    Meters
  --------------------------------------------------------------------------
  13                      0.01 356364.88    262  19:11       1.142   200.000
  14                      0.01 493922.17    262  19:13       5.483   200.000
  15                      0.01 151746.10    262  19:12       1.685   200.000
  17                      0.01  11396.16    262  19:16       0.238   200.000
  20                      0.01   2075.87    228  16:19       0.090   200.000
  21                     23.29    828.19    237  07:00      33.795   200.000
  22                    120.49  58388.92    256  17:14    1402.856   200.000
  23                      0.04  32823.85    228  19:32       1.961   200.000
  
  
  ***********************
  Outfall Loading Summary
  ***********************
  
  -----------------------------------------------------------
                         Flow       Avg       Max       Total
                         Freq      Flow      Flow      Volume
  Outfall Node           Pcnt       LPS       LPS    10^6 ltr
  -----------------------------------------------------------
  27                    79.20    425.58   3794.10    6908.331
  28                    99.68    351.07   1309.78    7739.823
  29                    99.65    545.66   1054.46   13566.322
  -----------------------------------------------------------
  System                92.84   1322.30   1054.46   28214.476
  
  
  ********************
  Link Flow Summary
  ********************
  
  -----------------------------------------------------------------------------
                                 Maximum  Time of Max   Maximum    Max/    Max/
                                  |Flow|   Occurrence   |Veloc|    Full    Full
  Link                 Type          LPS  days hr:min     m/sec    Flow   Depth
  -----------------------------------------------------------------------------
  0                    CONDUIT      0.00     0  00:00      0.00    0.00    0.00
  1                    CONDUIT      0.00     0  00:00      0.00    0.00    0.50
  2                    CONDUIT      0.00     0  00:00      0.00    0.00    0.00
  3                    CONDUIT      0.00     0  00:00      0.00    0.00    0.00
  4                    CONDUIT   1186.90   259  03:00      0.15    0.03    1.00
  5                    CONDUIT   1027.44   287  18:28      1.43    0.86    1.00
  6                    CONDUIT      0.00     0  00:00      0.00    0.00    0.00
  7                    CONDUIT      0.00     0  00:00      0.00    0.00    0.00
  8                    CONDUIT      0.00     0  00:00      0.00    0.00    0.00
  9                    CONDUIT     56.18   259  03:03      0.40    0.03    0.55
  10                   CONDUIT    262.86   259  03:01      0.82    0.00    0.23
  11                   CONDUIT    536.28   259  03:09      0.93    0.31    1.00
  12                   CONDUIT   2864.17   262  19:11      0.43    0.02    1.00
  13                   CONDUIT   5526.36   262  19:11      7.04    5.31    1.00
  14                   CONDUIT  50454.83   262  19:13    >50.00    0.00    1.00
  15                   CONDUIT 600380.52   262  19:11     47.78  1979.89    1.00
  16                   CONDUIT 2528469.20   262  19:13    >50.00   13.67    1.00
  17                   CONDUIT   9493.71   262  19:16     12.09  1961.13    1.00
  18                   CONDUIT 127335.08   262  19:10    >50.00  12954.06    1.00
  19                   CONDUIT 145810.87   262  19:14    >50.00    0.01    1.00
  20                   CONDUIT 126506.84   262  19:16    >50.00   42.85    1.00
  21                   CONDUIT   9201.72   222  06:14     11.72    5.33    1.00
  22                   CONDUIT   1520.65   235  21:28      2.00    1.20    1.00
  23                   CONDUIT   4034.83   257  14:33      5.14    5.22    1.00
  24                   CONDUIT   1627.00   259  11:39      2.07    1.32    1.00
  25                   CONDUIT   1391.48   262  19:14      1.90    0.70    1.00
  26                   CONDUIT 111523.87   256  17:14    >50.00    0.01    1.00
  27                   CONDUIT   1039.44   237  07:00      1.32    1.35    1.00
  28                   CONDUIT   1265.25   237  07:00      1.61  222.94    1.00
  29                   CONDUIT   3766.34   237  07:00      4.80    1.98    1.00
  30                   CONDUIT   1309.78   237  07:00      1.88    2.05    0.83
  31                   CONDUIT   1054.46   237  07:00      1.70    0.46    0.74
  
  
  ***************************
  Flow Classification Summary
  ***************************
  
  -------------------------------------------------------------------------------------
                      Adjusted    ---------- Fraction of Time in Flow Class ---------- 
                       /Actual         Up    Down  Sub   Sup   Up    Down  Norm  Inlet 
  Conduit               Length    Dry  Dry   Dry   Crit  Crit  Crit  Crit  Ltd   Ctrl  
  -------------------------------------------------------------------------------------
  0                       1.00   1.00  0.00  0.00  0.00  0.00  0.00  0.00  0.00  0.00
  1                       1.00   0.00  1.00  0.00  0.00  0.00  0.00  0.00  0.00  0.00
  2                       1.00   1.00  0.00  0.00  0.00  0.00  0.00  0.00  0.00  0.00
  3                       1.00   1.00  0.00  0.00  0.00  0.00  0.00  0.00  0.00  0.00
  4                       1.00   0.00  0.90  0.00  0.10  0.00  0.00  0.00  0.47  0.00
  5                       1.00   0.00  0.00  0.00  1.00  0.00  0.00  0.00  0.76  0.00
  6                       1.00   1.00  0.00  0.00  0.00  0.00  0.00  0.00  0.00  0.00
  7                       1.00   1.00  0.00  0.00  0.00  0.00  0.00  0.00  0.00  0.00
  8                       1.00   1.00  0.00  0.00  0.00  0.00  0.00  0.00  0.00  0.00
  9                       1.00   0.00  0.00  0.00  1.00  0.00  0.00  0.00  0.99  0.00
  10                      1.00   0.00  0.00  0.00  1.00  0.00  0.00  0.00  0.99  0.00
  11                      1.00   0.00  0.00  0.00  1.00  0.00  0.00  0.00  0.99  0.00
  12                      1.00   0.00  0.00  0.00  0.99  0.00  0.00  0.00  0.98  0.00
  13                      1.00   0.00  0.00  0.00  1.00  0.00  0.00  0.00  0.00  0.00
  14                      1.00   0.00  0.60  0.00  0.39  0.00  0.00  0.00  0.91  0.00
  15                      1.00   0.00  0.00  0.00  1.00  0.00  0.00  0.00  0.03  0.00
  16                      1.00   0.10  0.10  0.00  0.03  0.77  0.00  0.00  0.01  0.00
  17                      1.00   0.51  0.00  0.00  0.48  0.00  0.00  0.00  0.14  0.00
  18                      1.00   0.00  0.00  0.00  1.00  0.00  0.00  0.00  0.00  0.00
  19                      1.00   0.00  0.67  0.00  0.32  0.00  0.00  0.00  0.96  0.00
  20                      1.00   0.00  0.68  0.00  0.32  0.00  0.00  0.00  0.97  0.00
  21                      1.00   0.00  0.00  0.00  0.98  0.02  0.00  0.00  0.83  0.00
  22                      1.00   0.00  0.00  0.00  1.00  0.00  0.00  0.00  0.78  0.00
  23                      1.00   0.00  0.00  0.00  1.00  0.00  0.00  0.00  0.00  0.00
  24                      1.00   0.00  0.00  0.00  1.00  0.00  0.00  0.00  0.74  0.00
  25                      1.00   0.00  0.00  0.00  1.00  0.00  0.00  0.00  0.97  0.00
  26                      1.00   0.00  0.75  0.00  0.25  0.00  0.00  0.00  0.26  0.00
  27                      1.00   0.00  0.00  0.00  1.00  0.00  0.00  0.00  0.62  0.00
  28                      1.00   0.00  0.00  0.00  1.00  0.00  0.00  0.00  0.00  0.00
  29                      1.00   0.00  0.63  0.00  0.37  0.00  0.00  0.00  0.37  0.00
  30                      1.00   0.00  0.00  0.00  1.00  0.00  0.00  0.00  0.00  0.00
  31                      1.00   0.00  0.00  0.00  1.00  0.00  0.00  0.00  0.00  0.00
  
  
  *************************
  Conduit Surcharge Summary
  *************************
  
  ----------------------------------------------------------------------------
                                                           Hours        Hours 
                         --------- Hours Full --------   Above Full   Capacity
  Conduit                Both Ends  Upstream  Dnstream   Normal Flow   Limited
  ----------------------------------------------------------------------------
  4                          37.66     37.66    370.03      0.01         0.01
  5                        1280.61   1280.61   1926.08      0.01         0.01
  9                           0.01      0.01      4.43      0.01         0.01
  11                          4.43      4.43   7884.68      0.01         0.01
  12                         11.88     11.88   7860.96      0.01         0.01
  13                       3713.61   3713.61   7884.68      0.10         0.01
  14                        156.98    156.98   3708.06      0.01         0.01
  15                       1472.83   1504.17   1490.24   3685.32       752.36
  16                         94.82     94.83    142.11      0.02         0.01
  17                        155.63    156.98    155.63    168.11       154.99
  18                        730.19   3688.92    730.19   7885.33       730.09
  19                        155.62    155.62   3687.85      0.01         0.01
  20                        155.59    155.63    730.19      0.11         0.02
  21                        726.30    730.20   1332.72      5.74         0.10
  22                       1317.22   1332.72   1926.08    926.83       956.40
  23                       1332.67   1332.70   7879.81     35.12         0.07
  24                       1926.07   1926.07   2753.95   1917.23      1898.21
  25                         97.62     97.62   7879.81      0.01         0.01
  26                       1210.92   1210.93   6972.68      0.01         0.01
  27                       2753.95   2753.95   7879.50   1728.80      1952.56
  28                       2291.71   2753.95   2291.71   7450.67      2291.71
  29                          5.97      5.97   5097.06    165.70         0.01
  30                          0.01   2291.67      0.01   2183.01         0.01
  31                          0.01      0.01   7879.41      0.01         0.01
  

  Analysis begun on:  Wed Apr 15 03:57:57 2020
  Analysis ended on:  Wed Apr 15 04:01:18 2020
  Total elapsed time: 00:03:21