
  EPA STORM WATER MANAGEMENT MODEL - VERSION 5.1 (Build 5.1.013)
  --------------------------------------------------------------

  Template input file for Gottesacker karst system.  
  Based on input files created by Zhao Chen. 
  Modified by Chloe Fandel: 
  
  WARNING 04: minimum elevation drop used for Conduit 1
  WARNING 04: minimum elevation drop used for Conduit 4
  WARNING 04: minimum elevation drop used for Conduit 6
  WARNING 04: minimum elevation drop used for Conduit 11
  WARNING 04: minimum elevation drop used for Conduit 16
  WARNING 08: elevation drop exceeds length for Conduit 17
  WARNING 04: minimum elevation drop used for Conduit 22
  WARNING 04: minimum elevation drop used for Conduit 23
  WARNING 04: minimum elevation drop used for Conduit 27
  WARNING 04: minimum elevation drop used for Conduit 28
  WARNING 04: minimum elevation drop used for Conduit 29
  WARNING 04: minimum elevation drop used for Conduit 30
  WARNING 04: minimum elevation drop used for Conduit 31
  WARNING 04: minimum elevation drop used for Conduit 33
  
  *********************************************************
  NOTE: The summary statistics displayed in this report are
  based on results found at every computational time step,  
  not just on results from each reporting time step.
  *********************************************************
  
  ****************
  Analysis Options
  ****************
  Flow Units ............... LPS
  Process Models:
    Rainfall/Runoff ........ YES
    RDII ................... NO
    Snowmelt ............... NO
    Groundwater ............ NO
    Flow Routing ........... YES
    Ponding Allowed ........ NO
    Water Quality .......... NO
  Infiltration Method ...... HORTON
  Flow Routing Method ...... DYNWAVE
  Surcharge Method ......... EXTRAN
  Starting Date ............ 11/14/2013 00:00:00
  Ending Date .............. 10/11/2014 00:00:00
  Antecedent Dry Days ...... 0.0
  Report Time Step ......... 01:00:00
  Wet Time Step ............ 00:30:00
  Dry Time Step ............ 01:00:00
  Routing Time Step ........ 30.00 sec
  Variable Time Step ....... YES
  Maximum Trials ........... 8
  Number of Threads ........ 4
  Head Tolerance ........... 0.001524 m
  
  
  **************************        Volume         Depth
  Runoff Quantity Continuity     hectare-m            mm
  **************************     ---------       -------
  Total Precipitation ......      1826.492       684.785
  Evaporation Loss .........         0.000         0.000
  Infiltration Loss ........         0.000         0.000
  Surface Runoff ...........      1823.534       683.676
  Final Storage ............         3.229         1.211
  Continuity Error (%) .....        -0.015
  
  
  **************************        Volume        Volume
  Flow Routing Continuity        hectare-m      10^6 ltr
  **************************     ---------     ---------
  Dry Weather Inflow .......         0.000         0.000
  Wet Weather Inflow .......      1823.557     18235.760
  Groundwater Inflow .......         0.000         0.000
  RDII Inflow ..............         0.000         0.000
  External Inflow ..........         1.565        15.648
  External Outflow .........      2432.180     24322.058
  Flooding Loss ............         4.216        42.162
  Evaporation Loss .........         0.000         0.000
  Exfiltration Loss ........         0.000         0.000
  Initial Stored Volume ....         0.000         0.000
  Final Stored Volume ......         1.566        15.658
  Continuity Error (%) .....       -33.578
  
  
  *************************
  Highest Continuity Errors
  *************************
  Node 15 (-331.20%)
  Node 14 (-42.87%)
  Node 9 (-17.26%)
  Node 18 (-9.20%)
  Node 17 (2.68%)
  
  
  ***************************
  Time-Step Critical Elements
  ***************************
  Link 20 (92.75%)
  Link 36 (4.79%)
  
  
  ********************************
  Highest Flow Instability Indexes
  ********************************
  Link 12 (120)
  Link 3 (92)
  Link 20 (27)
  Link 6 (14)
  Link 21 (8)
  
  
  *************************
  Routing Time Step Summary
  *************************
  Minimum Time Step           :     0.50 sec
  Average Time Step           :     1.34 sec
  Maximum Time Step           :    30.00 sec
  Percent in Steady State     :     0.30
  Average Iterations per Step :     2.67
  Percent Not Converging      :    10.71
  
  
  ***************************
  Subcatchment Runoff Summary
  ***************************
  
  ------------------------------------------------------------------------------------------------------------------------------
                            Total      Total      Total      Total     Imperv       Perv      Total       Total     Peak  Runoff
                           Precip      Runon       Evap      Infil     Runoff     Runoff     Runoff      Runoff   Runoff   Coeff
  Subcatchment                 mm         mm         mm         mm         mm         mm         mm    10^6 ltr      LPS
  ------------------------------------------------------------------------------------------------------------------------------
  S1                         0.00       0.00       0.00       0.00       0.00       0.00       0.00        0.00     0.00   0.000
  S2                         0.00       0.00       0.00       0.00       0.00       0.00       0.00        0.00     0.00   0.000
  S3                         0.00       0.00       0.00       0.00       0.00       0.00       0.00        0.00     0.00   0.000
  S4                         0.00       0.00       0.00       0.00       0.00       0.00       0.00        0.00     0.00   0.000
  S5                      1035.63       0.00       0.00       0.00    1036.39       0.00    1036.39       46.64    41.29   1.001
  S6                      1025.22       0.00       0.00       0.00    1025.31       0.00    1025.31      371.68   262.35   1.000
  S7                      1385.10       0.00       0.00       0.00    1385.52       0.00    1385.52      498.79   466.98   1.000
  S8                      1066.35       0.00       0.00       0.00    1066.54       0.00    1066.54      322.63   234.60   1.000
  S9                      1024.25       0.00       0.00       0.00    1024.72       0.00    1024.72      140.90   143.99   1.000
  S10                     1036.22       0.00       0.00       0.00    1036.14       0.00    1036.14      841.87   614.86   1.000
  S11                     1318.99       0.00       0.00       0.00    1319.66       0.00    1319.66      240.84   252.07   1.001
  S14                      977.59       0.00       0.00       0.00     978.15       0.00     978.15       85.59    82.93   1.001
  S15                     1577.49       0.00       0.00       0.00    1578.42       0.00    1578.42      213.09   185.05   1.001
  S16                     1589.63       0.00       0.00       0.00    1590.24       0.00    1590.24      381.66   311.46   1.000
  S17                     1012.33       0.00       0.00       0.00    1012.23       0.00    1012.23      607.34   388.44   1.000
  S18                        0.00       0.00       0.00       0.00       0.00       0.00       0.00        0.00     0.00   0.000
  S19                        0.00       0.00       0.00       0.00       0.00       0.00       0.00        0.00     0.00   0.000
  S20                     1292.86       0.00       0.00       0.00    1293.18       0.00    1293.18      484.95   498.34   1.000
  S21                      770.39       0.00       0.00       0.00     770.36       0.00     770.36      381.33   362.19   1.000
  S22                        0.00       0.00       0.00       0.00       0.00       0.00       0.00        0.00     0.00   0.000
  S24                      837.07       0.00       0.00       0.00     835.19       0.00     835.19    13202.38  4953.22   0.998
  S25                     1125.76       0.00       0.00       0.00    1126.24       0.00    1126.24      211.17   206.72   1.000
  S26                        0.00       0.00       0.00       0.00       0.00       0.00       0.00        0.00     0.00   0.000
  S28                        0.00       0.00       0.00       0.00       0.00       0.00       0.00        0.00     0.00   0.000
  S29                     1369.60       0.00       0.00       0.00    1371.15       0.00    1371.15       71.99    81.41   1.001
  S30                       22.11       0.00       0.00       0.00      21.88       0.00      21.88       81.55    15.50   0.989
  S31                     1359.91       0.00       0.00       0.00    1361.72       0.00    1361.72       51.06    60.01   1.001
  S32                        0.00       0.00       0.00       0.00       0.00       0.00       0.00        0.00     0.00   0.000
  S33                        0.00       0.00       0.00       0.00       0.00       0.00       0.00        0.00     0.00   0.000
  
  
  ******************
  Node Depth Summary
  ******************
  
  ---------------------------------------------------------------------------------
                                 Average  Maximum  Maximum  Time of Max    Reported
                                   Depth    Depth      HGL   Occurrence   Max Depth
  Node                 Type       Meters   Meters   Meters  days hr:min      Meters
  ---------------------------------------------------------------------------------
  0                    JUNCTION     0.00     0.00  1872.50     0  00:00        0.00
  1                    JUNCTION     0.00     0.00  1762.50     0  00:00        0.00
  2                    JUNCTION     0.00     0.00  1762.50     0  00:00        0.00
  3                    JUNCTION     0.00    11.73  1444.23   237  23:39       11.58
  4                    JUNCTION     0.01     0.06  1955.06   259  03:03        0.06
  5                    JUNCTION     0.02     0.12  1927.62   259  03:01        0.12
  6                    JUNCTION     0.03     0.19  1762.69   262  21:01        0.19
  7                    JUNCTION     0.05     0.21  1790.21   259  03:07        0.21
  8                    JUNCTION     0.75    57.14  1682.14   262  20:27       57.02
  9                    JUNCTION     1.11    85.24  1710.24   262  21:01       85.14
  10                   JUNCTION     0.00     3.07  1710.57   262  21:01        2.97
  11                   JUNCTION     0.49    55.57  1680.57   259  05:01       55.55
  12                   JUNCTION     0.07    28.18  1680.68   262  20:27       27.85
  13                   JUNCTION     0.04     0.32  1680.32   259  05:02        0.32
  14                   JUNCTION     1.05   204.00  1581.50   259  00:18       66.59
  15                   JUNCTION     0.03    39.22  1444.22   237  23:39       39.08
  16                   JUNCTION     0.26   105.63  1675.63   259  05:02      105.59
  17                   JUNCTION     0.74   155.24  1532.74   259  00:23       65.41
  18                   JUNCTION     0.04    39.22  1444.22   237  23:40       39.08
  19                   JUNCTION     0.03     0.18  1680.18   262  21:00        0.18
  20                   JUNCTION     0.05     0.27  1515.27   262  21:07        0.27
  21                   JUNCTION     0.00     0.00  1570.00     0  00:00        0.00
  22                   JUNCTION     0.48    91.65  1194.15   237  09:39       17.51
  23                   JUNCTION     2.16   201.00  1303.50   237  09:36       52.48
  24                   JUNCTION     0.68   204.00  1306.50   237  09:36       17.54
  25                   JUNCTION     0.54   204.00  1306.50   237  09:39       17.52
  26                   JUNCTION     0.33   160.18  1262.68   237  09:38       17.51
  27                   JUNCTION     0.99   201.00  1303.50   237  09:36       26.10
  28                   JUNCTION     0.48   201.00  1303.50   237  09:38       20.28
  29                   JUNCTION    19.23   204.00  1224.00   237  09:38       99.14
  30                   OUTFALL      0.00     4.00  1124.00   237  09:36        0.00
  31                   OUTFALL      0.21     0.82  1080.82   237  09:38        0.51
  32                   OUTFALL      0.40     1.00  1036.00   163  21:28        1.00
  
  
  *******************
  Node Inflow Summary
  *******************
  
  -------------------------------------------------------------------------------------------------
                                  Maximum  Maximum                  Lateral       Total        Flow
                                  Lateral    Total  Time of Max      Inflow      Inflow     Balance
                                   Inflow   Inflow   Occurrence      Volume      Volume       Error
  Node                 Type           LPS      LPS  days hr:min    10^6 ltr    10^6 ltr     Percent
  -------------------------------------------------------------------------------------------------
  0                    JUNCTION      0.00     0.00     0  00:00           0           0       0.000 ltr
  1                    JUNCTION      0.00     0.00     0  00:00           0           0       0.000 ltr
  2                    JUNCTION      0.00     0.00     0  00:00           0           0       0.000 ltr
  3                    JUNCTION      0.00   201.00   237  11:07           0        2.06      -0.383
  4                    JUNCTION     42.38    42.38   259  03:00        48.7        48.7      -0.136
  5                    JUNCTION    263.34   263.34   259  03:00         374         374       0.000
  6                    JUNCTION    467.05   467.05   262  21:00         499         499      -0.111
  7                    JUNCTION    235.56   539.78   259  03:00         325         747       0.006
  8                    JUNCTION    144.48  1989.29   227  11:54         143    2.71e+03      -0.292
  9                    JUNCTION    615.26 25075.97   168  21:10         843    2.13e+03     -14.719
  10                   JUNCTION    252.18   252.18   262  21:00         241         241       0.000
  11                   JUNCTION      0.00  2055.16   227  11:53           0    2.84e+03      -0.086
  12                   JUNCTION      0.00   986.60   259  00:51           0         590       0.061
  13                   JUNCTION     83.42  1375.92   259  04:55        87.6         869      -0.086
  14                   JUNCTION    185.05407516.85   259  00:24         213    4.25e+03     -30.005
  15                   JUNCTION    311.46552204.23   259  00:19         382         946     -76.809
  16                   JUNCTION    389.43  2280.90   259  03:10         609    4.09e+03       0.012
  17                   JUNCTION      0.00 19855.42   259  00:25           0       1e+04       2.756
  18                   JUNCTION      0.00152260.61   259  00:20           0    4.14e+03      -8.422
  19                   JUNCTION    498.34   498.34   262  21:00         485         485      -0.018
  20                   JUNCTION    362.19   858.76   262  21:00         381         866      -0.087
  21                   JUNCTION      0.00     0.00     0  00:00           0           0       0.000 ltr
  22                   JUNCTION      0.00904227.62   237  09:39           0    8.55e+03      -1.129
  23                   JUNCTION   4953.26102845.89   237  09:36    1.32e+04     2.3e+04      -0.001
  24                   JUNCTION    207.06782641.44   237  09:37         212    1.93e+04      -0.312
  25                   JUNCTION      0.004012789.55   237  09:36           0    1.95e+04       0.615
  26                   JUNCTION      0.001054315.98   237  09:39           0    2.02e+04      -0.516
  27                   JUNCTION      0.00276993.31   237  09:36           0     9.8e+03       0.026
  28                   JUNCTION     81.41  3994.42   237  09:39          72    3.97e+03      -0.034
  29                   JUNCTION     15.50 47052.34   237  09:38        81.5    2.03e+04       0.095
  30                   OUTFALL      60.01854486.57   237  09:38        51.1         124       0.000
  31                   OUTFALL       0.00  2043.06   237  09:38           0    3.97e+03       0.000
  32                   OUTFALL       0.00  7941.69   237  09:38           0    2.02e+04       0.000
  
  
  **********************
  Node Surcharge Summary
  **********************
  
  Surcharging occurs when water rises above the top of the highest conduit.
  ---------------------------------------------------------------------
                                               Max. Height   Min. Depth
                                   Hours       Above Crown    Below Rim
  Node                 Type      Surcharged         Meters       Meters
  ---------------------------------------------------------------------
  3                    JUNCTION       22.89         10.731        0.000
  8                    JUNCTION      436.19         56.144        0.000
  9                    JUNCTION      306.36         81.240        0.000
  10                   JUNCTION        0.26          2.073        0.000
  11                   JUNCTION      253.53         54.574        0.000
  12                   JUNCTION       82.26         24.183        0.000
  14                   JUNCTION      564.84        200.000        0.000
  15                   JUNCTION       47.94         35.223        0.000
  16                   JUNCTION       28.68        101.630        0.000
  17                   JUNCTION      567.20        154.242        0.000
  18                   JUNCTION       47.94         35.224        0.000
  22                   JUNCTION       14.09         87.646        0.000
  23                   JUNCTION     3207.24        200.000        0.000
  24                   JUNCTION       14.09        200.000        0.000
  25                   JUNCTION       14.09        200.000        0.000
  26                   JUNCTION       14.09        156.181        0.000
  27                   JUNCTION     1852.20        200.000        0.000
  28                   JUNCTION      272.99        200.000        0.000
  29                   JUNCTION     7829.06        200.000        0.000
  
  
  *********************
  Node Flooding Summary
  *********************
  
  Flooding refers to all water that overflows a node, whether it ponds or not.
  --------------------------------------------------------------------------
                                                             Total   Maximum
                                 Maximum   Time of Max       Flood    Ponded
                        Hours       Rate    Occurrence      Volume     Depth
  Node                 Flooded       LPS   days hr:min    10^6 ltr    Meters
  --------------------------------------------------------------------------
  14                      0.01  42439.64    259  00:18       0.523   200.000
  23                      0.02  49606.48    237  09:36       2.579   200.000
  24                      0.01 346626.67    237  09:36       0.173   200.000
  25                      0.01 1625534.84    237  09:39      48.766   200.000
  27                      0.01  35943.54    237  09:36       0.242   200.000
  29                      0.02  35630.11    237  09:38       1.460   200.000
  
  
  ***********************
  Outfall Loading Summary
  ***********************
  
  -----------------------------------------------------------
                         Flow       Avg       Max       Total
                         Freq      Flow      Flow      Volume
  Outfall Node           Pcnt       LPS       LPS    10^6 ltr
  -----------------------------------------------------------
  30                    91.13      2.87 854486.57     124.229
  31                    99.97    169.30   2043.06    3967.914
  32                    99.93    837.19   7941.69   20229.827
  -----------------------------------------------------------
  System                97.01   1009.36   7941.69   24321.971
  
  
  ********************
  Link Flow Summary
  ********************
  
  -----------------------------------------------------------------------------
                                 Maximum  Time of Max   Maximum    Max/    Max/
                                  |Flow|   Occurrence   |Veloc|    Full    Full
  Link                 Type          LPS  days hr:min     m/sec    Flow   Depth
  -----------------------------------------------------------------------------
  0                    CONDUIT      0.00     0  00:00      0.00    0.00    0.00
  1                    CONDUIT      0.00     0  00:00      0.00    0.00    0.00
  2                    CONDUIT      0.00     0  00:00      0.00    0.00    0.50
  3                    CONDUIT 547339.66   259  00:19    >50.00    0.00    1.00
  4                    CONDUIT  29069.15   259  00:20      5.95   47.21    1.00
  5                    CONDUIT    304.42   259  17:46      0.48    0.52    1.00
  6                    CONDUIT  97476.23   259  00:20    >50.00  9916.46    1.00
  7                    CONDUIT     41.76   259  03:04      0.35    0.00    0.03
  8                    CONDUIT    262.92   259  03:01      1.46    0.00    0.04
  9                    CONDUIT    535.39   259  03:07      2.17    0.01    0.06
  10                   CONDUIT    464.34   262  21:01      0.13    0.00    0.52
  11                   CONDUIT   1891.18   211  02:18      2.41  430.20    1.00
  12                   CONDUIT  24524.69   168  21:10    >50.00    0.00    1.00
  13                   CONDUIT    928.92   259  04:58      1.06    0.02    0.54
  14                   CONDUIT   1358.59   259  05:02      0.47    0.01    0.54
  15                   CONDUIT    837.20   259  00:51      1.29    0.28    1.00
  16                   CONDUIT   1993.54   227  11:53      2.88  202.81    1.00
  17                   CONDUIT    654.45   239  16:10      1.00    0.16    1.00
  18                   CONDUIT   1154.54   312  01:44      1.52    1.48    1.00
  19                   CONDUIT   1896.80   259  05:02      3.30    1.26    1.00
  20                   CONDUIT 150909.64   259  00:20    >50.00    0.01    1.00
  21                   CONDUIT   1619.15   259  00:23     20.41    1.21    1.00
  22                   CONDUIT 179578.98   237  09:38    >50.00  18268.94    1.00
  23                   CONDUIT 108992.04   237  09:37    >50.00  13185.91    1.00
  24                   CONDUIT    496.93   262  21:00      1.79    0.00    0.06
  25                   CONDUIT    843.15   262  21:07      0.61    0.01    0.52
  26                   CONDUIT      0.00     0  00:00      0.00    0.00    0.03
  27                   CONDUIT 3307891.31   237  09:39    >50.00  6388.69    1.00
  28                   CONDUIT 903913.79   237  09:39    >50.00  1468.01    1.00
  29                   CONDUIT 2601210.57   237  09:36    >50.00  4224.53    1.00
  30                   CONDUIT 793190.71   237  09:36    >50.00  1288.19    1.00
  31                   CONDUIT 272713.54   237  09:36    >50.00  27743.71    1.00
  32                   CONDUIT  47037.58   237  09:38      3.74    0.97    1.00
  33                   CONDUIT  63156.69   237  09:36    >50.00  11128.53    1.00
  34                   CONDUIT 854473.87   237  09:38    >50.00    6.20    1.00
  35                   CONDUIT   2043.06   237  09:38      2.72    3.19    0.91
  36                   CONDUIT   7941.69   237  09:38     10.11    3.45    1.00
  
  
  ***************************
  Flow Classification Summary
  ***************************
  
  -------------------------------------------------------------------------------------
                      Adjusted    ---------- Fraction of Time in Flow Class ---------- 
                       /Actual         Up    Down  Sub   Sup   Up    Down  Norm  Inlet 
  Conduit               Length    Dry  Dry   Dry   Crit  Crit  Crit  Crit  Ltd   Ctrl  
  -------------------------------------------------------------------------------------
  0                       1.00   1.00  0.00  0.00  0.00  0.00  0.00  0.00  0.00  0.00
  1                       1.00   1.00  0.00  0.00  0.00  0.00  0.00  0.00  0.00  0.00
  2                       1.00   0.68  0.32  0.00  0.00  0.00  0.00  0.00  0.00  0.00
  3                       1.00   0.00  0.68  0.00  0.32  0.00  0.00  0.00  0.93  0.00
  4                       1.00   0.02  0.00  0.00  0.98  0.00  0.00  0.00  0.07  0.00
  5                       1.00   0.00  0.92  0.00  0.08  0.00  0.00  0.00  0.28  0.00
  6                       1.00   0.00  0.00  0.00  1.00  0.00  0.00  0.00  0.00  0.00
  7                       1.00   0.00  0.00  0.00  1.00  0.00  0.00  0.00  0.99  0.00
  8                       1.00   0.00  0.00  0.00  0.55  0.45  0.00  0.00  0.99  0.00
  9                       1.00   0.00  0.00  0.00  0.08  0.92  0.00  0.00  0.01  0.00
  10                      1.00   0.00  0.00  0.00  1.00  0.00  0.00  0.00  0.99  0.00
  11                      1.00   0.00  0.00  0.00  1.00  0.00  0.00  0.00  0.00  0.00
  12                      1.00   0.00  0.51  0.00  0.49  0.00  0.00  0.00  0.98  0.00
  13                      1.00   0.00  0.00  0.00  0.91  0.09  0.00  0.00  0.39  0.00
  14                      1.00   0.00  0.00  0.00  1.00  0.00  0.00  0.00  0.99  0.00
  15                      1.00   0.00  0.00  0.00  1.00  0.00  0.00  0.00  0.96  0.00
  16                      1.00   0.00  0.00  0.00  1.00  0.00  0.00  0.00  0.00  0.00
  17                      1.00   0.00  0.00  0.00  1.00  0.00  0.00  0.00  0.96  0.00
  18                      1.00   0.00  0.00  0.00  1.00  0.00  0.00  0.00  0.76  0.00
  19                      1.00   0.00  0.00  0.00  0.01  0.99  0.00  0.00  0.02  0.00
  20                      1.00   0.00  0.02  0.00  0.97  0.01  0.00  0.00  0.83  0.00
  21                      1.00   0.00  0.00  0.00  1.00  0.00  0.00  0.00  0.92  0.00
  22                      1.00   0.00  0.00  0.00  1.00  0.00  0.00  0.00  0.00  0.00
  23                      1.00   0.00  0.00  0.00  1.00  0.00  0.00  0.00  0.00  0.00
  24                      1.00   0.00  0.00  0.00  0.64  0.36  0.00  0.00  0.99  0.00
  25                      1.00   0.00  0.00  0.00  1.00  0.00  0.00  0.00  0.99  0.00
  26                      1.00   0.00  1.00  0.00  0.00  0.00  0.00  0.00  0.00  0.00
  27                      1.00   0.00  0.00  0.00  1.00  0.00  0.00  0.00  0.00  0.00
  28                      1.00   0.00  0.00  0.00  1.00  0.00  0.00  0.00  0.00  0.00
  29                      1.00   0.00  0.00  0.00  1.00  0.00  0.00  0.00  0.00  0.00
  30                      1.00   0.00  0.00  0.00  1.00  0.00  0.00  0.00  0.00  0.00
  31                      1.00   0.00  0.00  0.00  1.00  0.00  0.00  0.00  0.00  0.00
  32                      1.00   0.00  0.00  0.00  1.00  0.00  0.00  0.00  0.98  0.00
  33                      1.00   0.00  0.00  0.00  1.00  0.00  0.00  0.00  0.00  0.00
  34                      1.00   0.00  1.00  0.00  0.00  0.00  0.00  0.00  0.28  0.00
  35                      1.00   0.00  0.00  0.00  1.00  0.00  0.00  0.00  0.00  0.00
  36                      1.00   0.00  0.00  0.00  1.00  0.00  0.00  0.00  0.02  0.00
  
  
  *************************
  Conduit Surcharge Summary
  *************************
  
  ----------------------------------------------------------------------------
                                                           Hours        Hours 
                         --------- Hours Full --------   Above Full   Capacity
  Conduit                Both Ends  Upstream  Dnstream   Normal Flow   Limited
  ----------------------------------------------------------------------------
  3                          47.94     47.94    543.12      0.01         0.01
  4                          47.93     47.94     47.94    122.48        22.60
  5                          22.89     22.89    229.38      0.01         0.01
  6                         567.13   1578.90    567.13   7636.25       566.98
  10                          0.01      0.01    305.78      0.01         0.01
  11                        436.11   1259.85    436.11   6615.48       436.10
  12                          0.26      0.26   1258.62      0.01         0.01
  13                          0.01      0.01     82.26      0.01         0.01
  14                          0.01      0.01     28.68      0.01         0.01
  15                        118.73    118.73    436.11      0.01         0.01
  16                        253.51    436.11    253.51   5675.08       253.51
  17                        118.73    118.73    253.52      0.01         0.01
  18                        100.39    253.52    102.57    262.33        95.77
  19                        100.11    102.57    220.63     41.00        22.22
  20                        220.54    220.63    567.15      0.01         0.01
  21                        567.12    567.16   3207.12    476.06       491.76
  22                        753.87   3207.12    753.91   7881.26       753.86
  23                       1852.09   3207.12   1852.13   7847.42      1852.09
  25                          0.01      0.01     14.08      0.01         0.01
  27                         14.05     14.08     14.06   1329.69         2.58
  28                         14.08     14.08     14.08   1222.46        13.08
  29                         14.03     14.06     14.08   2787.92         0.15
  30                         14.05     14.06     14.08   1711.92        13.58
  31                        753.87    753.89   1852.13   7484.09         0.05
  32                         14.08     14.08   7829.06      0.01         0.01
  33                        272.94   1852.13    272.96   7635.69       272.91
  34                          0.07      0.07   2246.40      0.06         0.01
  35                          0.01    272.94      0.01     18.08         0.01
  36                        176.27    176.27   7828.54    507.85         0.01
  

  Analysis begun on:  Tue Apr 14 17:40:11 2020
  Analysis ended on:  Tue Apr 14 17:54:52 2020
  Total elapsed time: 00:14:41