
  EPA STORM WATER MANAGEMENT MODEL - VERSION 5.1 (Build 5.1.013)
  --------------------------------------------------------------

  Template input file for Gottesacker karst system.  
  Based on input files created by Zhao Chen. 
  Modified by Chloe Fandel: 
  
  WARNING 08: elevation drop exceeds length for Conduit 2
  WARNING 04: minimum elevation drop used for Conduit 4
  WARNING 04: minimum elevation drop used for Conduit 8
  WARNING 04: minimum elevation drop used for Conduit 13
  WARNING 04: minimum elevation drop used for Conduit 14
  WARNING 08: elevation drop exceeds length for Conduit 17
  WARNING 04: minimum elevation drop used for Conduit 20
  WARNING 04: minimum elevation drop used for Conduit 21
  
  *********************************************************
  NOTE: The summary statistics displayed in this report are
  based on results found at every computational time step,  
  not just on results from each reporting time step.
  *********************************************************
  
  ****************
  Analysis Options
  ****************
  Flow Units ............... LPS
  Process Models:
    Rainfall/Runoff ........ YES
    RDII ................... NO
    Snowmelt ............... NO
    Groundwater ............ NO
    Flow Routing ........... YES
    Ponding Allowed ........ NO
    Water Quality .......... NO
  Infiltration Method ...... HORTON
  Flow Routing Method ...... DYNWAVE
  Surcharge Method ......... EXTRAN
  Starting Date ............ 11/14/2013 00:00:00
  Ending Date .............. 10/11/2014 00:00:00
  Antecedent Dry Days ...... 0.0
  Report Time Step ......... 01:00:00
  Wet Time Step ............ 00:30:00
  Dry Time Step ............ 01:00:00
  Routing Time Step ........ 30.00 sec
  Variable Time Step ....... YES
  Maximum Trials ........... 8
  Number of Threads ........ 4
  Head Tolerance ........... 0.001524 m
  
  
  **************************        Volume         Depth
  Runoff Quantity Continuity     hectare-m            mm
  **************************     ---------       -------
  Total Precipitation ......      2405.521       764.385
  Evaporation Loss .........         0.000         0.000
  Infiltration Loss ........         0.000         0.000
  Surface Runoff ...........      2401.894       763.233
  Final Storage ............         3.945         1.254
  Continuity Error (%) .....        -0.013
  
  
  **************************        Volume        Volume
  Flow Routing Continuity        hectare-m      10^6 ltr
  **************************     ---------     ---------
  Dry Weather Inflow .......         0.000         0.000
  Wet Weather Inflow .......      2401.875     24019.003
  Groundwater Inflow .......         0.000         0.000
  RDII Inflow ..............         0.000         0.000
  External Inflow ..........         1.177        11.766
  External Outflow .........      4156.651     41566.941
  Flooding Loss ............       930.515      9305.245
  Evaporation Loss .........         0.000         0.000
  Exfiltration Loss ........         0.000         0.000
  Initial Stored Volume ....         0.000         0.000
  Final Stored Volume ......         0.355         3.551
  Continuity Error (%) .....      -111.711
  
  
  *************************
  Highest Continuity Errors
  *************************
  Node 8 (-634.24%)
  Node 5 (-57.25%)
  Node 11 (-4.19%)
  
  
  ***************************
  Time-Step Critical Elements
  ***************************
  Link 24 (52.00%)
  Link 13 (21.14%)
  Link 4 (9.47%)
  Link 22 (7.59%)
  
  
  ********************************
  Highest Flow Instability Indexes
  ********************************
  Link 6 (100)
  Link 7 (96)
  Link 13 (41)
  Link 20 (40)
  Link 21 (37)
  
  
  *************************
  Routing Time Step Summary
  *************************
  Minimum Time Step           :     0.50 sec
  Average Time Step           :    15.77 sec
  Maximum Time Step           :    30.00 sec
  Percent in Steady State     :     0.30
  Average Iterations per Step :     6.99
  Percent Not Converging      :    80.94
  
  
  ***************************
  Subcatchment Runoff Summary
  ***************************
  
  ------------------------------------------------------------------------------------------------------------------------------
                            Total      Total      Total      Total     Imperv       Perv      Total       Total     Peak  Runoff
                           Precip      Runon       Evap      Infil     Runoff     Runoff     Runoff      Runoff   Runoff   Coeff
  Subcatchment                 mm         mm         mm         mm         mm         mm         mm    10^6 ltr      LPS
  ------------------------------------------------------------------------------------------------------------------------------
  S1                         0.00       0.00       0.00       0.00       0.00       0.00       0.00        0.00     0.00   0.000
  S2                         0.00       0.00       0.00       0.00       0.00       0.00       0.00        0.00     0.00   0.000
  S3                         0.00       0.00       0.00       0.00       0.00       0.00       0.00        0.00     0.00   0.000
  S4                         0.00       0.00       0.00       0.00       0.00       0.00       0.00        0.00     0.00   0.000
  S5                      1061.54       0.00       0.00       0.00    1061.69       0.00    1061.69      368.94   262.37   1.000
  S6                      1029.54       0.00       0.00       0.00    1030.00       0.00    1030.00      105.58    87.48   1.000
  S7                      1024.61       0.00       0.00       0.00    1024.82       0.00    1024.82      266.45   198.54   1.000
  S8                      1385.10       0.00       0.00       0.00    1385.52       0.00    1385.52      498.79   466.98   1.000
  S9                      1036.22       0.00       0.00       0.00    1036.14       0.00    1036.14      841.87   614.86   1.000
  S10                     1318.99       0.00       0.00       0.00    1319.66       0.00    1319.66      240.84   252.07   1.001
  S11                      977.59       0.00       0.00       0.00     978.15       0.00     978.15       85.59    82.93   1.001
  S12                     1565.06       0.00       0.00       0.00    1565.91       0.00    1565.91      246.63   210.79   1.001
  S13                     1589.63       0.00       0.00       0.00    1590.24       0.00    1590.24      381.66   311.46   1.000
  S14                     1292.86       0.00       0.00       0.00    1293.18       0.00    1293.18      484.95   498.34   1.000
  S15                      770.39       0.00       0.00       0.00     770.36       0.00     770.36      381.33   362.19   1.000
  S16                        0.00       0.00       0.00       0.00       0.00       0.00       0.00        0.00     0.00   0.000
  S17                     1186.94       0.00       0.00       0.00    1185.96       0.00    1185.96     5977.26  2762.19   0.999
  S18                      845.75       0.00       0.00       0.00     843.82       0.00     843.82    13821.87  5167.79   0.998
  S19                     1364.67       0.00       0.00       0.00    1365.98       0.00    1365.98      102.45   112.96   1.001
  S20                        0.00       0.00       0.00       0.00       0.00       0.00       0.00        0.00     0.00   0.000
  S21                     1369.60       0.00       0.00       0.00    1371.06       0.00    1371.06       82.26    92.06   1.001
  S22                       22.11       0.00       0.00       0.00      21.88       0.00      21.88       81.55    15.50   0.989
  S23                     1359.91       0.00       0.00       0.00    1361.72       0.00    1361.72       51.06    60.01   1.001
  S24                        0.00       0.00       0.00       0.00       0.00       0.00       0.00        0.00     0.00   0.000
  S25                        0.00       0.00       0.00       0.00       0.00       0.00       0.00        0.00     0.00   0.000
  
  
  ******************
  Node Depth Summary
  ******************
  
  ---------------------------------------------------------------------------------
                                 Average  Maximum  Maximum  Time of Max    Reported
                                   Depth    Depth      HGL   Occurrence   Max Depth
  Node                 Type       Meters   Meters   Meters  days hr:min      Meters
  ---------------------------------------------------------------------------------
  0                    JUNCTION     0.00     0.00  1872.50     0  00:00        0.00
  1                    JUNCTION     0.00     0.00  1680.00     0  00:00        0.00
  2                    JUNCTION     0.00     0.00  1762.50     0  00:00        0.00
  3                    JUNCTION    34.47   149.33  1581.83   262  19:26      149.01
  4                    JUNCTION     0.03     0.14  1955.14   259  03:03        0.14
  5                    JUNCTION     0.23     0.83  1818.33   312  00:03        0.83
  6                    JUNCTION     0.00     0.03  1927.53   259  03:00        0.03
  7                    JUNCTION     0.03     0.20  1762.70   262  21:01        0.20
  8                    JUNCTION     0.80     2.97  1655.47   262  20:03        2.97
  9                    JUNCTION     0.01     0.18  1707.68   262  20:30        0.18
  10                   JUNCTION     0.26     0.96  1653.46   312  00:13        0.95
  11                   JUNCTION    53.96   204.00  1581.50   124  23:12      204.00
  12                   JUNCTION    53.97   204.00  1581.50   127  00:18      204.00
  13                   JUNCTION     0.03     0.19  1680.19   262  21:00        0.19
  14                   JUNCTION     0.05     0.26  1542.76   262  21:06        0.26
  15                   JUNCTION     0.00     0.00  1570.00     0  00:00        0.00
  16                   JUNCTION     6.85   204.00  1334.00   227  18:32      204.00
  17                   JUNCTION    26.33   201.00  1303.50   237  02:22      201.00
  18                   JUNCTION    23.62   185.71  1288.21   259  03:00      185.71
  19                   JUNCTION    20.94   150.34  1252.84   259  03:00      150.34
  20                   JUNCTION    16.27   126.86  1229.36   259  03:00      126.86
  21                   JUNCTION    16.00    23.25  1043.25   259  08:00       23.25
  22                   OUTFALL      0.38     1.00  1121.00   168  20:38        1.00
  23                   OUTFALL      0.42     0.74  1080.74   259  03:00        0.74
  24                   OUTFALL      0.21     0.60  1035.60   259  08:00        0.60
  
  
  *******************
  Node Inflow Summary
  *******************
  
  -------------------------------------------------------------------------------------------------
                                  Maximum  Maximum                  Lateral       Total        Flow
                                  Lateral    Total  Time of Max      Inflow      Inflow     Balance
                                   Inflow   Inflow   Occurrence      Volume      Volume       Error
  Node                 Type           LPS      LPS  days hr:min    10^6 ltr    10^6 ltr     Percent
  -------------------------------------------------------------------------------------------------
  0                    JUNCTION      0.00     0.00     0  00:00           0           0       0.000 ltr
  1                    JUNCTION      0.00     0.00     0  00:00           0           0       0.000 ltr
  2                    JUNCTION      0.00     0.00     0  00:00           0           0       0.000 ltr
  3                    JUNCTION      0.00 50356.48   137  11:21           0         745       0.000
  4                    JUNCTION    263.34   263.34   259  03:00         371         371       0.018
  5                    JUNCTION     88.54 21298.26   312  00:00         108    1.21e+04     -36.408
  6                    JUNCTION    199.49   199.49   259  03:00         268         268       0.000
  7                    JUNCTION    467.05   467.05   262  21:00         499         499      -0.010
  8                    JUNCTION    615.26  1078.68   262  21:00         843    1.36e+03     -86.381
  9                    JUNCTION    252.18   252.18   262  21:00         241         241       0.000
  10                   JUNCTION     83.42 13706.34   312  00:05        87.6    2.91e+04      -0.092
  11                   JUNCTION    210.794170135.99   191  21:17         247    4.13e+03      -4.019
  12                   JUNCTION    311.464832647.48   191  21:18         382    3.26e+04      -0.055
  13                   JUNCTION    498.34   498.34   262  21:00         485         485      -0.015
  14                   JUNCTION    362.19   858.60   262  21:00         381         866      -0.350
  15                   JUNCTION      0.00     0.00     0  00:00           0           0       0.000 ltr
  16                   JUNCTION   2762.29  3906.84   262  20:38    5.98e+03    8.31e+03       0.039
  17                   JUNCTION   5167.83  6497.71   237  07:00    1.38e+04    3.45e+04      -0.003
  18                   JUNCTION    112.96  3326.95   259  02:54         102    1.69e+04       0.005
  19                   JUNCTION      0.00  6706.57   237  09:27           0    3.41e+04       0.006
  20                   JUNCTION     92.06  1656.64   259  03:00        82.3    1.54e+04       0.000
  21                   JUNCTION     15.50  1544.42   259  08:00        81.5    7.36e+03       0.168
  22                   OUTFALL      60.01  5168.18   259  03:00        51.1    1.89e+04       0.000
  23                   OUTFALL       0.00  1656.58   259  03:00           0    1.54e+04       0.000
  24                   OUTFALL       0.00  1544.42   259  08:00           0    7.35e+03       0.000
  
  
  **********************
  Node Surcharge Summary
  **********************
  
  Surcharging occurs when water rises above the top of the highest conduit.
  ---------------------------------------------------------------------
                                               Max. Height   Min. Depth
                                   Hours       Above Crown    Below Rim
  Node                 Type      Surcharged         Meters       Meters
  ---------------------------------------------------------------------
  3                    JUNCTION     1447.83        145.329        0.000
  11                   JUNCTION     1993.15        200.000        0.000
  12                   JUNCTION     1993.24        200.000        0.000
  16                   JUNCTION      606.01        200.000        0.000
  17                   JUNCTION     5948.48        200.000        0.000
  18                   JUNCTION     5930.23        184.710        0.000
  19                   JUNCTION     5903.74        149.336        0.000
  20                   JUNCTION     4313.88        125.862        0.000
  21                   JUNCTION     7628.95         22.252        0.000
  
  
  *********************
  Node Flooding Summary
  *********************
  
  Flooding refers to all water that overflows a node, whether it ponds or not.
  --------------------------------------------------------------------------
                                                             Total   Maximum
                                 Maximum   Time of Max       Flood    Ponded
                        Hours       Rate    Occurrence      Volume     Depth
  Node                 Flooded       LPS   days hr:min    10^6 ltr    Meters
  --------------------------------------------------------------------------
  11                    889.74 3382716.31    191  21:17     453.762   200.000
  12                    884.72 3022393.19    191  21:18    8818.179   200.000
  16                     18.72    699.70    259  03:07      20.907   200.000
  17                     11.51    890.39    237  07:00      13.370   200.000
  
  
  ***********************
  Outfall Loading Summary
  ***********************
  
  -----------------------------------------------------------
                         Flow       Avg       Max       Total
                         Freq      Flow      Flow      Volume
  Outfall Node           Pcnt       LPS       LPS    10^6 ltr
  -----------------------------------------------------------
  22                    81.18   1123.96   5168.18   18850.659
  23                    99.61    616.68   1656.58   15368.061
  24                    95.02    385.18   1544.42    7348.187
  -----------------------------------------------------------
  System                91.94   2125.82   1544.42   41566.907
  
  
  ********************
  Link Flow Summary
  ********************
  
  -----------------------------------------------------------------------------
                                 Maximum  Time of Max   Maximum    Max/    Max/
                                  |Flow|   Occurrence   |Veloc|    Full    Full
  Link                 Type          LPS  days hr:min     m/sec    Flow   Depth
  -----------------------------------------------------------------------------
  0                    CONDUIT      0.00     0  00:00      0.00    0.00    0.00
  1                    CONDUIT      0.00     0  00:00      0.00    0.00    0.50
  2                    CONDUIT      0.00     0  00:00      0.00    0.00    0.00
  3                    CONDUIT  50356.48   137  11:21      5.01    1.38    1.00
  4                    CONDUIT 4831241.53   191  21:18    >50.00  7846.24    1.00
  5                    CONDUIT    262.17   259  03:03      0.62    0.00    0.12
  6                    CONDUIT   9098.90   312  00:04      4.38    0.10    0.22
  7                    CONDUIT  21041.44   312  00:00    >50.00    0.00    0.10
  8                    CONDUIT   5026.46   262  20:04      0.82   40.28    0.49
  9                    CONDUIT  13571.37   312  00:13      5.72    0.13    0.62
  10                   CONDUIT    464.14   262  21:01      0.11    0.00    0.40
  11                   CONDUIT    538.07   301  00:44      3.29    0.00    0.50
  12                   CONDUIT   1685.37   190  03:18      2.15    1.26    1.00
  13                   CONDUIT   2377.53   237  10:40      3.03  241.87    1.00
  14                   CONDUIT   3407.52   237  10:40      4.34  412.24    1.00
  15                   CONDUIT    496.81   262  21:01      1.77    0.00    0.06
  16                   CONDUIT    844.33   262  21:06      0.42    0.01    0.53
  17                   CONDUIT      0.00     0  00:00      0.00    0.00    0.03
  18                   CONDUIT   1485.31   262  20:40      1.89    1.86    1.00
  19                   CONDUIT   1529.07   227  18:32      1.95    1.61    1.00
  20                   CONDUIT   3325.96   259  04:30      4.23  338.36    1.00
  21                   CONDUIT   1618.66   237  09:28      2.06  285.22    1.00
  22                   CONDUIT   5108.16   259  03:00      6.50    2.69    1.00
  23                   CONDUIT   1656.58   259  03:00      2.28    2.59    0.87
  24                   CONDUIT   1544.42   259  08:00      2.29    0.67    0.80
  
  
  ***************************
  Flow Classification Summary
  ***************************
  
  -------------------------------------------------------------------------------------
                      Adjusted    ---------- Fraction of Time in Flow Class ---------- 
                       /Actual         Up    Down  Sub   Sup   Up    Down  Norm  Inlet 
  Conduit               Length    Dry  Dry   Dry   Crit  Crit  Crit  Crit  Ltd   Ctrl  
  -------------------------------------------------------------------------------------
  0                       1.00   1.00  0.00  0.00  0.00  0.00  0.00  0.00  0.00  0.00
  1                       1.00   0.00  1.00  0.00  0.00  0.00  0.00  0.00  0.00  0.00
  2                       1.00   1.00  0.00  0.00  0.00  0.00  0.00  0.00  0.00  0.00
  3                       1.00   0.00  0.47  0.00  0.52  0.00  0.00  0.00  0.39  0.00
  4                       1.00   0.00  0.00  0.00  1.00  0.00  0.00  0.00  0.00  0.00
  5                       1.00   0.00  0.00  0.00  1.00  0.00  0.00  0.00  0.99  0.00
  6                       1.00   0.00  0.00  0.00  0.01  0.99  0.00  0.00  0.54  0.00
  7                       1.00   0.00  0.66  0.00  0.34  0.00  0.00  0.00  0.96  0.00
  8                       1.00   0.00  0.00  0.00  1.00  0.00  0.00  0.00  0.00  0.00
  9                       1.00   0.00  0.00  0.00  0.99  0.00  0.00  0.00  0.99  0.00
  10                      1.00   0.00  0.00  0.00  0.99  0.00  0.00  0.00  0.99  0.00
  11                      1.00   0.00  0.94  0.00  0.06  0.00  0.00  0.00  0.96  0.00
  12                      1.00   0.00  0.00  0.00  1.00  0.00  0.00  0.00  0.60  0.00
  13                      1.00   0.00  0.00  0.00  1.00  0.00  0.00  0.00  0.00  0.00
  14                      1.00   0.00  0.00  0.00  1.00  0.00  0.00  0.00  0.00  0.00
  15                      1.00   0.00  0.00  0.00  0.64  0.35  0.00  0.00  0.99  0.00
  16                      1.00   0.00  0.00  0.00  1.00  0.00  0.00  0.00  0.99  0.00
  17                      1.00   0.00  1.00  0.00  0.00  0.00  0.00  0.00  0.00  0.00
  18                      1.00   0.00  0.00  0.00  1.00  0.00  0.00  0.00  0.65  0.00
  19                      1.00   0.00  0.00  0.00  1.00  0.00  0.00  0.00  0.80  0.00
  20                      1.00   0.00  0.00  0.00  1.00  0.00  0.00  0.00  0.00  0.00
  21                      1.00   0.00  0.00  0.00  1.00  0.00  0.00  0.00  0.00  0.00
  22                      1.00   0.00  0.38  0.00  0.61  0.00  0.00  0.00  0.38  0.00
  23                      1.00   0.00  0.00  0.00  1.00  0.00  0.00  0.00  0.00  0.00
  24                      1.00   0.00  0.04  0.00  0.96  0.00  0.00  0.00  0.18  0.00
  
  
  *************************
  Conduit Surcharge Summary
  *************************
  
  ----------------------------------------------------------------------------
                                                           Hours        Hours 
                         --------- Hours Full --------   Above Full   Capacity
  Conduit                Both Ends  Upstream  Dnstream   Normal Flow   Limited
  ----------------------------------------------------------------------------
  3                        1447.77   1447.77   1982.87      0.02         0.01
  4                        1993.01   1993.13   1993.19    605.39        91.07
  8                           0.01      0.01      0.01   2568.57         0.01
  9                           0.01      0.01   1993.19      0.01         0.01
  11                          0.01      0.01   1486.69      0.01         0.01
  12                       3098.58   3098.58   5948.47   1910.72      1896.05
  13                       5930.21   5948.47   5930.21   7763.52      5930.20
  14                       5902.86   5948.47   5902.86   7884.39      5902.86
  16                          0.01      0.01    606.01      0.01         0.01
  18                       1418.97   1418.97   5930.21     59.43        60.34
  19                       1418.97   1418.97   7628.93    362.05       381.67
  20                       5902.91   5930.21   5902.91   7772.66      5902.91
  21                       4313.86   5902.86   4313.86   7883.86      4313.86
  22                        143.26    143.26   6947.11    583.72         0.01
  23                          0.01   4313.77      0.01   4122.48         0.01
  24                          0.01      0.01   7451.34      0.01         0.01
  

  Analysis begun on:  Tue Apr 14 21:49:46 2020
  Analysis ended on:  Tue Apr 14 21:52:23 2020
  Total elapsed time: 00:02:37