
  EPA STORM WATER MANAGEMENT MODEL - VERSION 5.1 (Build 5.1.013)
  --------------------------------------------------------------

  Template input file for Gottesacker karst system.  
  Based on input files created by Zhao Chen. 
  Modified by Chloe Fandel: 
  
  WARNING 04: minimum elevation drop used for Conduit 1
  WARNING 04: minimum elevation drop used for Conduit 4
  WARNING 04: minimum elevation drop used for Conduit 5
  WARNING 04: minimum elevation drop used for Conduit 16
  WARNING 04: minimum elevation drop used for Conduit 17
  WARNING 04: minimum elevation drop used for Conduit 19
  WARNING 04: minimum elevation drop used for Conduit 20
  WARNING 04: minimum elevation drop used for Conduit 21
  WARNING 04: minimum elevation drop used for Conduit 22
  WARNING 04: minimum elevation drop used for Conduit 23
  WARNING 04: minimum elevation drop used for Conduit 24
  WARNING 04: minimum elevation drop used for Conduit 27
  WARNING 04: minimum elevation drop used for Conduit 30
  WARNING 04: minimum elevation drop used for Conduit 31
  WARNING 04: minimum elevation drop used for Conduit 32
  WARNING 04: minimum elevation drop used for Conduit 34
  WARNING 04: minimum elevation drop used for Conduit 36
  WARNING 04: minimum elevation drop used for Conduit 37
  WARNING 08: elevation drop exceeds length for Conduit 38
  WARNING 04: minimum elevation drop used for Conduit 39
  WARNING 04: minimum elevation drop used for Conduit 43
  WARNING 08: elevation drop exceeds length for Conduit 46
  WARNING 04: minimum elevation drop used for Conduit 47
  WARNING 04: minimum elevation drop used for Conduit 50
  WARNING 04: minimum elevation drop used for Conduit 51
  WARNING 08: elevation drop exceeds length for Conduit 52
  WARNING 04: minimum elevation drop used for Conduit 53
  WARNING 04: minimum elevation drop used for Conduit 54
  WARNING 08: elevation drop exceeds length for Conduit 55
  WARNING 04: minimum elevation drop used for Conduit 57
  WARNING 08: elevation drop exceeds length for Conduit 60
  WARNING 04: minimum elevation drop used for Conduit 61
  WARNING 04: minimum elevation drop used for Conduit 62
  WARNING 04: minimum elevation drop used for Conduit 63
  WARNING 04: minimum elevation drop used for Conduit 64
  WARNING 04: minimum elevation drop used for Conduit 65
  WARNING 04: minimum elevation drop used for Conduit 66
  WARNING 04: minimum elevation drop used for Conduit 67
  WARNING 04: minimum elevation drop used for Conduit 68
  WARNING 04: minimum elevation drop used for Conduit 69
  WARNING 08: elevation drop exceeds length for Conduit 70
  WARNING 04: minimum elevation drop used for Conduit 72
  WARNING 04: minimum elevation drop used for Conduit 73
  WARNING 08: elevation drop exceeds length for Conduit 75
  WARNING 04: minimum elevation drop used for Conduit 76
  WARNING 04: minimum elevation drop used for Conduit 77
  WARNING 08: elevation drop exceeds length for Conduit 80
  WARNING 04: minimum elevation drop used for Conduit 82
  WARNING 04: minimum elevation drop used for Conduit 83
  WARNING 08: elevation drop exceeds length for Conduit 87
  WARNING 04: minimum elevation drop used for Conduit 88
  WARNING 04: minimum elevation drop used for Conduit 89
  WARNING 04: minimum elevation drop used for Conduit 90
  WARNING 04: minimum elevation drop used for Conduit 91
  WARNING 04: minimum elevation drop used for Conduit 92
  WARNING 04: minimum elevation drop used for Conduit 93
  WARNING 04: minimum elevation drop used for Conduit 94
  WARNING 04: minimum elevation drop used for Conduit 95
  WARNING 04: minimum elevation drop used for Conduit 96
  WARNING 08: elevation drop exceeds length for Conduit 97
  WARNING 04: minimum elevation drop used for Conduit 98
  WARNING 08: elevation drop exceeds length for Conduit 99
  WARNING 04: minimum elevation drop used for Conduit 100
  WARNING 04: minimum elevation drop used for Conduit 101
  WARNING 04: minimum elevation drop used for Conduit 102
  WARNING 04: minimum elevation drop used for Conduit 103
  WARNING 04: minimum elevation drop used for Conduit 104
  WARNING 04: minimum elevation drop used for Conduit 105
  WARNING 04: minimum elevation drop used for Conduit 106
  WARNING 04: minimum elevation drop used for Conduit 107
  WARNING 04: minimum elevation drop used for Conduit 108
  WARNING 08: elevation drop exceeds length for Conduit 109
  WARNING 04: minimum elevation drop used for Conduit 110
  WARNING 04: minimum elevation drop used for Conduit 111
  WARNING 08: elevation drop exceeds length for Conduit 112
  WARNING 04: minimum elevation drop used for Conduit 116
  WARNING 04: minimum elevation drop used for Conduit 117
  WARNING 04: minimum elevation drop used for Conduit 118
  WARNING 04: minimum elevation drop used for Conduit 119
  WARNING 08: elevation drop exceeds length for Conduit 120
  WARNING 04: minimum elevation drop used for Conduit 121
  WARNING 04: minimum elevation drop used for Conduit 122
  WARNING 04: minimum elevation drop used for Conduit 123
  WARNING 08: elevation drop exceeds length for Conduit 124
  WARNING 04: minimum elevation drop used for Conduit 126
  WARNING 08: elevation drop exceeds length for Conduit 127
  WARNING 04: minimum elevation drop used for Conduit 129
  WARNING 04: minimum elevation drop used for Conduit 130
  WARNING 08: elevation drop exceeds length for Conduit 131
  WARNING 04: minimum elevation drop used for Conduit 132
  WARNING 04: minimum elevation drop used for Conduit 133
  WARNING 08: elevation drop exceeds length for Conduit 134
  WARNING 04: minimum elevation drop used for Conduit 135
  WARNING 04: minimum elevation drop used for Conduit 137
  WARNING 08: elevation drop exceeds length for Conduit 138
  WARNING 04: minimum elevation drop used for Conduit 139
  WARNING 04: minimum elevation drop used for Conduit 143
  WARNING 04: minimum elevation drop used for Conduit 144
  WARNING 04: minimum elevation drop used for Conduit 145
  WARNING 04: minimum elevation drop used for Conduit 146
  WARNING 08: elevation drop exceeds length for Conduit 147
  WARNING 04: minimum elevation drop used for Conduit 148
  WARNING 04: minimum elevation drop used for Conduit 149
  WARNING 04: minimum elevation drop used for Conduit 151
  WARNING 04: minimum elevation drop used for Conduit 153
  WARNING 04: minimum elevation drop used for Conduit 155
  WARNING 08: elevation drop exceeds length for Conduit 156
  WARNING 04: minimum elevation drop used for Conduit 157
  WARNING 04: minimum elevation drop used for Conduit 158
  WARNING 04: minimum elevation drop used for Conduit 160
  WARNING 04: minimum elevation drop used for Conduit 163
  WARNING 04: minimum elevation drop used for Conduit 165
  WARNING 04: minimum elevation drop used for Conduit 166
  WARNING 08: elevation drop exceeds length for Conduit 167
  WARNING 08: elevation drop exceeds length for Conduit 169
  WARNING 04: minimum elevation drop used for Conduit 170
  WARNING 04: minimum elevation drop used for Conduit 171
  WARNING 08: elevation drop exceeds length for Conduit 172
  WARNING 04: minimum elevation drop used for Conduit 174
  WARNING 04: minimum elevation drop used for Conduit 176
  WARNING 04: minimum elevation drop used for Conduit 178
  WARNING 04: minimum elevation drop used for Conduit 179
  WARNING 04: minimum elevation drop used for Conduit 181
  WARNING 04: minimum elevation drop used for Conduit 182
  WARNING 04: minimum elevation drop used for Conduit 184
  WARNING 04: minimum elevation drop used for Conduit 186
  WARNING 04: minimum elevation drop used for Conduit 192
  WARNING 04: minimum elevation drop used for Conduit 194
  WARNING 04: minimum elevation drop used for Conduit 197
  WARNING 04: minimum elevation drop used for Conduit 198
  WARNING 04: minimum elevation drop used for Conduit 199
  WARNING 04: minimum elevation drop used for Conduit 200
  WARNING 04: minimum elevation drop used for Conduit 201
  WARNING 04: minimum elevation drop used for Conduit 202
  WARNING 04: minimum elevation drop used for Conduit 203
  WARNING 04: minimum elevation drop used for Conduit 204
  WARNING 08: elevation drop exceeds length for Conduit 205
  WARNING 04: minimum elevation drop used for Conduit 206
  WARNING 04: minimum elevation drop used for Conduit 207
  WARNING 04: minimum elevation drop used for Conduit 208
  WARNING 04: minimum elevation drop used for Conduit 209
  WARNING 08: elevation drop exceeds length for Conduit 212
  WARNING 04: minimum elevation drop used for Conduit 213
  WARNING 04: minimum elevation drop used for Conduit 219
  WARNING 04: minimum elevation drop used for Conduit 220
  WARNING 04: minimum elevation drop used for Conduit 223
  WARNING 04: minimum elevation drop used for Conduit 224
  WARNING 04: minimum elevation drop used for Conduit 225
  WARNING 04: minimum elevation drop used for Conduit 226
  WARNING 04: minimum elevation drop used for Conduit 227
  WARNING 04: minimum elevation drop used for Conduit 228
  WARNING 04: minimum elevation drop used for Conduit 229
  WARNING 04: minimum elevation drop used for Conduit 231
  WARNING 04: minimum elevation drop used for Conduit 234
  WARNING 04: minimum elevation drop used for Conduit 237
  WARNING 04: minimum elevation drop used for Conduit 240
  WARNING 04: minimum elevation drop used for Conduit 241
  WARNING 04: minimum elevation drop used for Conduit 242
  WARNING 04: minimum elevation drop used for Conduit 243
  WARNING 04: minimum elevation drop used for Conduit 244
  WARNING 04: minimum elevation drop used for Conduit 247
  WARNING 04: minimum elevation drop used for Conduit 249
  WARNING 08: elevation drop exceeds length for Conduit 250
  WARNING 04: minimum elevation drop used for Conduit 251
  WARNING 04: minimum elevation drop used for Conduit 253
  WARNING 08: elevation drop exceeds length for Conduit 254
  WARNING 04: minimum elevation drop used for Conduit 256
  WARNING 04: minimum elevation drop used for Conduit 257
  WARNING 04: minimum elevation drop used for Conduit 258
  WARNING 04: minimum elevation drop used for Conduit 259
  WARNING 04: minimum elevation drop used for Conduit 260
  WARNING 04: minimum elevation drop used for Conduit 261
  WARNING 04: minimum elevation drop used for Conduit 262
  WARNING 04: minimum elevation drop used for Conduit 263
  WARNING 04: minimum elevation drop used for Conduit 264
  WARNING 04: minimum elevation drop used for Conduit 266
  WARNING 04: minimum elevation drop used for Conduit 267
  WARNING 04: minimum elevation drop used for Conduit 268
  WARNING 04: minimum elevation drop used for Conduit 269
  WARNING 04: minimum elevation drop used for Conduit 270
  WARNING 04: minimum elevation drop used for Conduit 271
  WARNING 04: minimum elevation drop used for Conduit 273
  WARNING 04: minimum elevation drop used for Conduit 275
  WARNING 04: minimum elevation drop used for Conduit 277
  WARNING 04: minimum elevation drop used for Conduit 279
  WARNING 04: minimum elevation drop used for Conduit 280
  WARNING 04: minimum elevation drop used for Conduit 281
  WARNING 04: minimum elevation drop used for Conduit 282
  WARNING 04: minimum elevation drop used for Conduit 284
  WARNING 04: minimum elevation drop used for Conduit 285
  WARNING 04: minimum elevation drop used for Conduit 286
  WARNING 04: minimum elevation drop used for Conduit 287
  WARNING 04: minimum elevation drop used for Conduit 288
  WARNING 04: minimum elevation drop used for Conduit 289
  WARNING 04: minimum elevation drop used for Conduit 290
  WARNING 04: minimum elevation drop used for Conduit 295
  WARNING 04: minimum elevation drop used for Conduit 297
  WARNING 04: minimum elevation drop used for Conduit 298
  WARNING 04: minimum elevation drop used for Conduit 299
  WARNING 04: minimum elevation drop used for Conduit 300
  WARNING 04: minimum elevation drop used for Conduit 301
  WARNING 04: minimum elevation drop used for Conduit 302
  WARNING 08: elevation drop exceeds length for Conduit 303
  WARNING 04: minimum elevation drop used for Conduit 304
  WARNING 04: minimum elevation drop used for Conduit 308
  WARNING 04: minimum elevation drop used for Conduit 309
  WARNING 04: minimum elevation drop used for Conduit 310
  WARNING 04: minimum elevation drop used for Conduit 311
  WARNING 04: minimum elevation drop used for Conduit 312
  WARNING 04: minimum elevation drop used for Conduit 317
  WARNING 04: minimum elevation drop used for Conduit 318
  WARNING 04: minimum elevation drop used for Conduit 319
  WARNING 04: minimum elevation drop used for Conduit 322
  WARNING 04: minimum elevation drop used for Conduit 324
  WARNING 04: minimum elevation drop used for Conduit 325
  WARNING 04: minimum elevation drop used for Conduit 326
  WARNING 04: minimum elevation drop used for Conduit 330
  WARNING 04: minimum elevation drop used for Conduit 337
  WARNING 08: elevation drop exceeds length for Conduit 338
  WARNING 04: minimum elevation drop used for Conduit 339
  WARNING 04: minimum elevation drop used for Conduit 341
  WARNING 04: minimum elevation drop used for Conduit 345
  WARNING 04: minimum elevation drop used for Conduit 346
  WARNING 04: minimum elevation drop used for Conduit 347
  WARNING 04: minimum elevation drop used for Conduit 348
  WARNING 04: minimum elevation drop used for Conduit 349
  WARNING 04: minimum elevation drop used for Conduit 350
  WARNING 04: minimum elevation drop used for Conduit 351
  WARNING 04: minimum elevation drop used for Conduit 352
  WARNING 04: minimum elevation drop used for Conduit 354
  WARNING 04: minimum elevation drop used for Conduit 355
  WARNING 04: minimum elevation drop used for Conduit 357
  WARNING 04: minimum elevation drop used for Conduit 358
  WARNING 04: minimum elevation drop used for Conduit 359
  WARNING 04: minimum elevation drop used for Conduit 366
  
  *********************************************************
  NOTE: The summary statistics displayed in this report are
  based on results found at every computational time step,  
  not just on results from each reporting time step.
  *********************************************************
  
  ****************
  Analysis Options
  ****************
  Flow Units ............... LPS
  Process Models:
    Rainfall/Runoff ........ YES
    RDII ................... NO
    Snowmelt ............... NO
    Groundwater ............ NO
    Flow Routing ........... YES
    Ponding Allowed ........ NO
    Water Quality .......... NO
  Infiltration Method ...... HORTON
  Flow Routing Method ...... DYNWAVE
  Surcharge Method ......... EXTRAN
  Starting Date ............ 11/14/2013 00:00:00
  Ending Date .............. 10/11/2014 00:00:00
  Antecedent Dry Days ...... 0.0
  Report Time Step ......... 01:00:00
  Wet Time Step ............ 00:30:00
  Dry Time Step ............ 01:00:00
  Routing Time Step ........ 30.00 sec
  Variable Time Step ....... YES
  Maximum Trials ........... 8
  Number of Threads ........ 4
  Head Tolerance ........... 0.001524 m
  
  
  **************************        Volume         Depth
  Runoff Quantity Continuity     hectare-m            mm
  **************************     ---------       -------
  Total Precipitation ......      2343.488       713.065
  Evaporation Loss .........         0.000         0.000
  Infiltration Loss ........         0.000         0.000
  Surface Runoff ...........      2343.606       713.101
  Final Storage ............         0.875         0.266
  Continuity Error (%) .....        -0.042
  
  
  **************************        Volume        Volume
  Flow Routing Continuity        hectare-m      10^6 ltr
  **************************     ---------     ---------
  Dry Weather Inflow .......         0.000         0.000
  Wet Weather Inflow .......      2343.595     23436.193
  Groundwater Inflow .......         0.000         0.000
  RDII Inflow ..............         0.000         0.000
  External Inflow ..........         5.423        54.233
  External Outflow .........      3465.726     34657.625
  Flooding Loss ............        76.616       766.164
  Evaporation Loss .........         0.000         0.000
  Exfiltration Loss ........         0.000         0.000
  Initial Stored Volume ....         0.000         0.001
  Final Stored Volume ......         1.647        16.471
  Continuity Error (%) .....       -50.871
  
  
  *************************
  Highest Continuity Errors
  *************************
  Node 20 (-827.31%)
  Node 224 (-615.73%)
  Node 98 (-362.33%)
  Node 186 (-32.34%)
  Node 187 (-26.80%)
  
  
  ***************************
  Time-Step Critical Elements
  ***************************
  Link 210 (55.73%)
  Link 355 (6.33%)
  Link 120 (5.63%)
  Link 267 (5.28%)
  Link 169 (1.71%)
  
  
  ********************************
  Highest Flow Instability Indexes
  ********************************
  Link 26 (144)
  Link 43 (144)
  Link 149 (142)
  Link 18 (142)
  Link 236 (132)
  
  
  *************************
  Routing Time Step Summary
  *************************
  Minimum Time Step           :     0.50 sec
  Average Time Step           :     9.00 sec
  Maximum Time Step           :    30.00 sec
  Percent in Steady State     :     0.30
  Average Iterations per Step :     7.28
  Percent Not Converging      :    80.77
  
  
  ***************************
  Subcatchment Runoff Summary
  ***************************
  
  ------------------------------------------------------------------------------------------------------------------------------
                            Total      Total      Total      Total     Imperv       Perv      Total       Total     Peak  Runoff
                           Precip      Runon       Evap      Infil     Runoff     Runoff     Runoff      Runoff   Runoff   Coeff
  Subcatchment                 mm         mm         mm         mm         mm         mm         mm    10^6 ltr      LPS
  ------------------------------------------------------------------------------------------------------------------------------
  S1                         0.00       0.00       0.00       0.00       0.00       0.00       0.00        0.00     0.00   0.000
  S2                         0.00       0.00       0.00       0.00       0.00       0.00       0.00        0.00     0.00   0.000
  S3                         0.00       0.00       0.00       0.00       0.00       0.00       0.00        0.00     0.00   0.000
  S4                         0.00       0.00       0.00       0.00       0.00       0.00       0.00        0.00     0.00   0.000
  S5                      1061.54       0.00       0.00       0.00    1061.69       0.00    1061.69      368.94   262.37   1.000
  S6                      1053.22       0.00       0.00       0.00    1053.55       0.00    1053.55      208.08   159.86   1.000
  S7                         0.00       0.00       0.00       0.00       0.00       0.00       0.00        0.00     0.00   0.000
  S8                       216.07       0.00       0.00       0.00     215.42       0.00     215.42      966.17   326.33   0.997
  S9                      1015.28       0.00       0.00       0.00    1015.29       0.00    1015.29      487.34   328.42   1.000
  S10                        0.00       0.00       0.00       0.00       0.00       0.00       0.00        0.00     0.00   0.000
  S11                     1008.24       0.00       0.00       0.00    1008.64       0.00    1008.64      136.17   111.29   1.000
  S12                     1025.22       0.00       0.00       0.00    1025.31       0.00    1025.31      371.68   262.35   1.000
  S13                     1385.10       0.00       0.00       0.00    1385.52       0.00    1385.52      498.79   466.98   1.000
  S14                      618.94       0.00       0.00       0.00     618.53       0.00     618.53      853.57   419.88   0.999
  S15                     1125.81       0.00       0.00       0.00    1125.72       0.00    1125.72      790.82   518.11   1.000
  S16                      668.19       0.00       0.00       0.00     668.21       0.00     668.21      190.44   131.32   1.000
  S17                     1563.56       0.00       0.00       0.00    1564.70       0.00    1564.70      148.65   135.75   1.001
  S18                     1033.18       0.00       0.00       0.00    1033.25       0.00    1033.25      322.89   232.04   1.000
  S19                     1020.98       0.00       0.00       0.00    1021.25       0.00    1021.25      194.04   151.11   1.000
  S20                     1003.45       0.00       0.00       0.00    1004.15       0.00    1004.15       60.25    53.05   1.001
  S22                     1036.22       0.00       0.00       0.00    1036.14       0.00    1036.14      841.87   614.86   1.000
  S25                        0.00       0.00       0.00       0.00       0.00       0.00       0.00        0.00     0.00   0.000
  S26                        0.00       0.00       0.00       0.00       0.00       0.00       0.00        0.00     0.00   0.000
  S27                     1577.49       0.00       0.00       0.00    1578.43       0.00    1578.43      209.14   181.93   1.001
  S28                     1605.11       0.00       0.00       0.00    1605.82       0.00    1605.82      321.17   267.68   1.000
  S29                     1002.11       0.00       0.00       0.00    1002.34       0.00    1002.34      218.01   164.26   1.000
  S30                        0.00       0.00       0.00       0.00       0.00       0.00       0.00        0.00     0.00   0.000
  S31                        0.00       0.00       0.00       0.00       0.00       0.00       0.00        0.00     0.00   0.000
  S32                     1103.74       0.00       0.00       0.00    1103.95       0.00    1103.95      314.63   241.36   1.000
  S33                        0.00       0.00       0.00       0.00       0.00       0.00       0.00        0.00     0.00   0.000
  S34                        0.00       0.00       0.00       0.00       0.00       0.00       0.00        0.00     0.00   0.000
  S35                     1491.27       0.00       0.00       0.00    1494.19       0.00    1494.19       18.68    37.93   1.002
  S36                     1360.47       0.00       0.00       0.00    1360.96       0.00    1360.96      299.41   247.73   1.000
  S37                     1618.01       0.00       0.00       0.00    1619.68       0.00    1619.68       72.89    69.01   1.001
  S38                     1533.04       0.00       0.00       0.00    1533.29       0.00    1533.29      858.65   654.39   1.000
  S39                      951.72       0.00       0.00       0.00     952.92       0.00     952.92       19.06    28.41   1.001
  S40                      945.64       0.00       0.00       0.00     946.59       0.00     946.59       30.76    37.19   1.001
  S41                     1487.62       0.00       0.00       0.00    1489.16       0.00    1489.16       85.63   127.32   1.001
  S42                     1569.01       0.00       0.00       0.00    1570.32       0.00    1570.32      113.85   106.11   1.001
  S43                        0.00       0.00       0.00       0.00       0.00       0.00       0.00        0.00     0.00   0.000
  S44                      950.09       0.00       0.00       0.00     951.01       0.00     951.01       33.29    41.86   1.001
  S45                        0.00       0.00       0.00       0.00       0.00       0.00       0.00        0.00     0.00   0.000
  S46                        0.00       0.00       0.00       0.00       0.00       0.00       0.00        0.00     0.00   0.000
  S47                     1552.78       0.00       0.00       0.00    1554.75       0.00    1554.75       54.42    81.23   1.001
  S48                     1150.07       0.00       0.00       0.00    1149.95       0.00    1149.95     1129.83   806.26   1.000
  S49                      399.10       0.00       0.00       0.00     399.20       0.00     399.20       27.94    21.08   1.000
  S52                     1517.43       0.00       0.00       0.00    1517.72       0.00    1517.72      774.04   613.88   1.000
  S53                     1468.95       0.00       0.00       0.00    1470.81       0.00    1470.81       51.48    71.41   1.001
  S56                     1473.00       0.00       0.00       0.00    1474.40       0.00    1474.40       99.52   136.46   1.001
  S57                        0.00       0.00       0.00       0.00       0.00       0.00       0.00        0.00     0.00   0.000
  S58                        0.00       0.00       0.00       0.00       0.00       0.00       0.00        0.00     0.00   0.000
  S59                        0.00       0.00       0.00       0.00       0.00       0.00       0.00        0.00     0.00   0.000
  S60                     1504.70       0.00       0.00       0.00    1506.45       0.00    1506.45       75.32   138.91   1.001
  S61                        0.00       0.00       0.00       0.00       0.00       0.00       0.00        0.00     0.00   0.000
  S62                      939.58       0.00       0.00       0.00     940.44       0.00     940.44       37.62    41.22   1.001
  S63                        0.00       0.00       0.00       0.00       0.00       0.00       0.00        0.00     0.00   0.000
  S64                     1484.89       0.00       0.00       0.00    1486.70       0.00    1486.70       74.34   156.77   1.001
  S65                        0.00       0.00       0.00       0.00       0.00       0.00       0.00        0.00     0.00   0.000
  S66                        0.00       0.00       0.00       0.00       0.00       0.00       0.00        0.00     0.00   0.000
  S67                     1485.51       0.00       0.00       0.00    1486.30       0.00    1486.30      282.40   314.29   1.001
  S68                      965.66       0.00       0.00       0.00     966.73       0.00     966.73       26.59    41.15   1.001
  S69                        0.00       0.00       0.00       0.00       0.00       0.00       0.00        0.00     0.00   0.000
  S71                        0.00       0.00       0.00       0.00       0.00       0.00       0.00        0.00     0.00   0.000
  S72                     1474.54       0.00       0.00       0.00    1476.95       0.00    1476.95       36.92    88.50   1.002
  S73                        0.00       0.00       0.00       0.00       0.00       0.00       0.00        0.00     0.00   0.000
  S74                        0.00       0.00       0.00       0.00       0.00       0.00       0.00        0.00     0.00   0.000
  S75                      942.01       0.00       0.00       0.00     942.06       0.00     942.06      435.71   351.02   1.000
  S76                        0.00       0.00       0.00       0.00       0.00       0.00       0.00        0.00     0.00   0.000
  S77                     1455.19       0.00       0.00       0.00    1455.74       0.00    1455.74      444.00   473.84   1.000
  S78                        0.00       0.00       0.00       0.00       0.00       0.00       0.00        0.00     0.00   0.000
  S79                     1463.87       0.00       0.00       0.00    1465.07       0.00    1465.07      135.52   170.59   1.001
  S80                        0.00       0.00       0.00       0.00       0.00       0.00       0.00        0.00     0.00   0.000
  S81                     1241.24       0.00       0.00       0.00    1241.14       0.00    1241.14     1194.60   911.30   1.000
  S82                      922.29       0.00       0.00       0.00     922.77       0.00     922.77      103.81    92.49   1.001
  S83                        0.00       0.00       0.00       0.00       0.00       0.00       0.00        0.00     0.00   0.000
  S84                        0.00       0.00       0.00       0.00       0.00       0.00       0.00        0.00     0.00   0.000
  S85                        0.00       0.00       0.00       0.00       0.00       0.00       0.00        0.00     0.00   0.000
  S86                        0.00       0.00       0.00       0.00       0.00       0.00       0.00        0.00     0.00   0.000
  S92                        0.00       0.00       0.00       0.00       0.00       0.00       0.00        0.00     0.00   0.000
  S95                        0.00       0.00       0.00       0.00       0.00       0.00       0.00        0.00     0.00   0.000
  S96                        0.00       0.00       0.00       0.00       0.00       0.00       0.00        0.00     0.00   0.000
  S97                        0.00       0.00       0.00       0.00       0.00       0.00       0.00        0.00     0.00   0.000
  S99                      921.14       0.00       0.00       0.00     921.83       0.00     921.83       55.31    52.93   1.001
  S100                       0.00       0.00       0.00       0.00       0.00       0.00       0.00        0.00     0.00   0.000
  S101                    1586.10       0.00       0.00       0.00    1587.15       0.00    1587.15      198.39   191.87   1.001
  S102                    1436.94       0.00       0.00       0.00    1438.07       0.00    1438.07      143.81   153.40   1.001
  S103                       0.00       0.00       0.00       0.00       0.00       0.00       0.00        0.00     0.00   0.000
  S104                       0.00       0.00       0.00       0.00       0.00       0.00       0.00        0.00     0.00   0.000
  S105                     913.91       0.00       0.00       0.00     915.03       0.00     915.03       20.59    23.34   1.001
  S106                       0.00       0.00       0.00       0.00       0.00       0.00       0.00        0.00     0.00   0.000
  S107                    1465.45       0.00       0.00       0.00    1466.49       0.00    1466.49      179.65   219.28   1.001
  S108                       0.00       0.00       0.00       0.00       0.00       0.00       0.00        0.00     0.00   0.000
  S109                     929.29       0.00       0.00       0.00     929.88       0.00     929.88       74.39    70.65   1.001
  S110                       0.00       0.00       0.00       0.00       0.00       0.00       0.00        0.00     0.00   0.000
  S111                       0.00       0.00       0.00       0.00       0.00       0.00       0.00        0.00     0.00   0.000
  S112                     691.74       0.00       0.00       0.00     691.70       0.00     691.70      307.81   284.34   1.000
  S113                       0.00       0.00       0.00       0.00       0.00       0.00       0.00        0.00     0.00   0.000
  S114                       0.00       0.00       0.00       0.00       0.00       0.00       0.00        0.00     0.00   0.000
  S115                       0.00       0.00       0.00       0.00       0.00       0.00       0.00        0.00     0.00   0.000
  S117                       0.00       0.00       0.00       0.00       0.00       0.00       0.00        0.00     0.00   0.000
  S118                       0.00       0.00       0.00       0.00       0.00       0.00       0.00        0.00     0.00   0.000
  S119                    1437.64       0.00       0.00       0.00    1439.56       0.00    1439.56       46.79    62.72   1.001
  S120                    1450.27       0.00       0.00       0.00    1451.47       0.00    1451.47      127.00   130.09   1.001
  S121                     997.28       0.00       0.00       0.00     997.50       0.00     997.50      294.26   259.37   1.000
  S122                       0.00       0.00       0.00       0.00       0.00       0.00       0.00        0.00     0.00   0.000
  S123                       0.00       0.00       0.00       0.00       0.00       0.00       0.00        0.00     0.00   0.000
  S124                       0.00       0.00       0.00       0.00       0.00       0.00       0.00        0.00     0.00   0.000
  S125                       0.00       0.00       0.00       0.00       0.00       0.00       0.00        0.00     0.00   0.000
  S126                       0.00       0.00       0.00       0.00       0.00       0.00       0.00        0.00     0.00   0.000
  S127                    1470.47       0.00       0.00       0.00    1472.21       0.00    1472.21       66.25   115.80   1.001
  S128                       0.00       0.00       0.00       0.00       0.00       0.00       0.00        0.00     0.00   0.000
  S129                       0.00       0.00       0.00       0.00       0.00       0.00       0.00        0.00     0.00   0.000
  S130                       0.00       0.00       0.00       0.00       0.00       0.00       0.00        0.00     0.00   0.000
  S131                    1272.83       0.00       0.00       0.00    1272.46       0.00    1272.46     2198.18  1276.91   1.000
  S132                    1428.17       0.00       0.00       0.00    1430.30       0.00    1430.30       35.76    43.33   1.001
  S133                     910.45       0.00       0.00       0.00     911.03       0.00     911.03       75.16    71.35   1.001
  S134                     906.76       0.00       0.00       0.00     907.73       0.00     907.73       27.23    28.56   1.001
  S135                       0.00       0.00       0.00       0.00       0.00       0.00       0.00        0.00     0.00   0.000
  S136                       0.00       0.00       0.00       0.00       0.00       0.00       0.00        0.00     0.00   0.000
  S137                    1430.27       0.00       0.00       0.00    1430.76       0.00    1430.76      468.58   406.90   1.000
  S138                       0.00       0.00       0.00       0.00       0.00       0.00       0.00        0.00     0.00   0.000
  S139                       0.00       0.00       0.00       0.00       0.00       0.00       0.00        0.00     0.00   0.000
  S140                       0.00       0.00       0.00       0.00       0.00       0.00       0.00        0.00     0.00   0.000
  S141                       0.00       0.00       0.00       0.00       0.00       0.00       0.00        0.00     0.00   0.000
  S142                       0.00       0.00       0.00       0.00       0.00       0.00       0.00        0.00     0.00   0.000
  S143                       0.00       0.00       0.00       0.00       0.00       0.00       0.00        0.00     0.00   0.000
  S144                       0.00       0.00       0.00       0.00       0.00       0.00       0.00        0.00     0.00   0.000
  S145                    1502.98       0.00       0.00       0.00    1504.24       0.00    1504.24      135.38   180.32   1.001
  S146                       0.00       0.00       0.00       0.00       0.00       0.00       0.00        0.00     0.00   0.000
  S147                     202.41       0.00       0.00       0.00     202.33       0.00     202.33       41.98    27.16   1.000
  S148                       0.00       0.00       0.00       0.00       0.00       0.00       0.00        0.00     0.00   0.000
  S149                       0.00       0.00       0.00       0.00       0.00       0.00       0.00        0.00     0.00   0.000
  S150                       0.00       0.00       0.00       0.00       0.00       0.00       0.00        0.00     0.00   0.000
  S151                       0.00       0.00       0.00       0.00       0.00       0.00       0.00        0.00     0.00   0.000
  S152                       0.00       0.00       0.00       0.00       0.00       0.00       0.00        0.00     0.00   0.000
  S153                       0.00       0.00       0.00       0.00       0.00       0.00       0.00        0.00     0.00   0.000
  S154                     909.54       0.00       0.00       0.00     910.01       0.00     910.01      100.10    91.85   1.001
  S155                       0.00       0.00       0.00       0.00       0.00       0.00       0.00        0.00     0.00   0.000
  S156                       0.00       0.00       0.00       0.00       0.00       0.00       0.00        0.00     0.00   0.000
  S157                       0.00       0.00       0.00       0.00       0.00       0.00       0.00        0.00     0.00   0.000
  S158                       0.00       0.00       0.00       0.00       0.00       0.00       0.00        0.00     0.00   0.000
  S159                    1458.54       0.00       0.00       0.00    1459.66       0.00    1459.66      149.62   175.60   1.001
  S160                       0.00       0.00       0.00       0.00       0.00       0.00       0.00        0.00     0.00   0.000
  S161                       0.00       0.00       0.00       0.00       0.00       0.00       0.00        0.00     0.00   0.000
  S162                       0.00       0.00       0.00       0.00       0.00       0.00       0.00        0.00     0.00   0.000
  S163                    1275.49       0.00       0.00       0.00    1276.37       0.00    1276.37      143.59   137.99   1.001
  S164                       0.00       0.00       0.00       0.00       0.00       0.00       0.00        0.00     0.00   0.000
  S165                    1417.47       0.00       0.00       0.00    1418.39       0.00    1418.39      198.58   188.35   1.001
  S166                    1456.65       0.00       0.00       0.00    1457.85       0.00    1457.85      127.56   150.90   1.001
  S167                       0.00       0.00       0.00       0.00       0.00       0.00       0.00        0.00     0.00   0.000
  S168                       0.00       0.00       0.00       0.00       0.00       0.00       0.00        0.00     0.00   0.000
  S169                    1440.34       0.00       0.00       0.00    1442.07       0.00    1442.07       57.68    73.87   1.001
  S170                       0.00       0.00       0.00       0.00       0.00       0.00       0.00        0.00     0.00   0.000
  S171                       0.00       0.00       0.00       0.00       0.00       0.00       0.00        0.00     0.00   0.000
  S173                       0.00       0.00       0.00       0.00       0.00       0.00       0.00        0.00     0.00   0.000
  S174                       0.00       0.00       0.00       0.00       0.00       0.00       0.00        0.00     0.00   0.000
  S175                     921.04       0.00       0.00       0.00     921.43       0.00     921.43      135.91   118.21   1.000
  S177                       0.00       0.00       0.00       0.00       0.00       0.00       0.00        0.00     0.00   0.000
  S181                       0.00       0.00       0.00       0.00       0.00       0.00       0.00        0.00     0.00   0.000
  S182                       0.00       0.00       0.00       0.00       0.00       0.00       0.00        0.00     0.00   0.000
  S183                       0.00       0.00       0.00       0.00       0.00       0.00       0.00        0.00     0.00   0.000
  S184                       0.00       0.00       0.00       0.00       0.00       0.00       0.00        0.00     0.00   0.000
  S185                    1413.15       0.00       0.00       0.00    1412.97       0.00    1412.97     1971.10  1311.86   1.000
  S186                       0.00       0.00       0.00       0.00       0.00       0.00       0.00        0.00     0.00   0.000
  S187                    1445.01       0.00       0.00       0.00    1445.91       0.00    1445.91      213.27   222.36   1.001
  S189                       0.00       0.00       0.00       0.00       0.00       0.00       0.00        0.00     0.00   0.000
  S190                       0.00       0.00       0.00       0.00       0.00       0.00       0.00        0.00     0.00   0.000
  S191                       0.00       0.00       0.00       0.00       0.00       0.00       0.00        0.00     0.00   0.000
  S193                    1402.44       0.00       0.00       0.00    1403.28       0.00    1403.28      231.54   222.67   1.001
  S194                       0.00       0.00       0.00       0.00       0.00       0.00       0.00        0.00     0.00   0.000
  S197                       0.00       0.00       0.00       0.00       0.00       0.00       0.00        0.00     0.00   0.000
  S198                       0.00       0.00       0.00       0.00       0.00       0.00       0.00        0.00     0.00   0.000
  S199                    1393.03       0.00       0.00       0.00    1394.60       0.00    1394.60       69.73    75.98   1.001
  S200                       0.00       0.00       0.00       0.00       0.00       0.00       0.00        0.00     0.00   0.000
  S201                       0.00       0.00       0.00       0.00       0.00       0.00       0.00        0.00     0.00   0.000
  S202                       0.00       0.00       0.00       0.00       0.00       0.00       0.00        0.00     0.00   0.000
  S203                       0.00       0.00       0.00       0.00       0.00       0.00       0.00        0.00     0.00   0.000
  S204                       0.00       0.00       0.00       0.00       0.00       0.00       0.00        0.00     0.00   0.000
  S205                       0.00       0.00       0.00       0.00       0.00       0.00       0.00        0.00     0.00   0.000
  S206                       0.00       0.00       0.00       0.00       0.00       0.00       0.00        0.00     0.00   0.000
  S207                       0.00       0.00       0.00       0.00       0.00       0.00       0.00        0.00     0.00   0.000
  S208                       0.00       0.00       0.00       0.00       0.00       0.00       0.00        0.00     0.00   0.000
  S210                       0.00       0.00       0.00       0.00       0.00       0.00       0.00        0.00     0.00   0.000
  S211                       0.00       0.00       0.00       0.00       0.00       0.00       0.00        0.00     0.00   0.000
  S212                       0.00       0.00       0.00       0.00       0.00       0.00       0.00        0.00     0.00   0.000
  S213                    1377.53       0.00       0.00       0.00    1379.22       0.00    1379.22       58.62    66.27   1.001
  S214                       0.00       0.00       0.00       0.00       0.00       0.00       0.00        0.00     0.00   0.000
  S215                       0.00       0.00       0.00       0.00       0.00       0.00       0.00        0.00     0.00   0.000
  S216                       0.00       0.00       0.00       0.00       0.00       0.00       0.00        0.00     0.00   0.000
  S217                       0.00       0.00       0.00       0.00       0.00       0.00       0.00        0.00     0.00   0.000
  S218                       0.00       0.00       0.00       0.00       0.00       0.00       0.00        0.00     0.00   0.000
  S221                       0.00       0.00       0.00       0.00       0.00       0.00       0.00        0.00     0.00   0.000
  S222                    1286.14       0.00       0.00       0.00    1286.36       0.00    1286.36      668.91   532.59   1.000
  S223                    1391.62       0.00       0.00       0.00    1393.22       0.00    1393.22       66.18    72.38   1.001
  S226                       0.00       0.00       0.00       0.00       0.00       0.00       0.00        0.00     0.00   0.000
  S227                       0.00       0.00       0.00       0.00       0.00       0.00       0.00        0.00     0.00   0.000
  S228                    1370.05       0.00       0.00       0.00    1373.16       0.00    1373.16       13.73    18.36   1.002
  S229                    1413.45       0.00       0.00       0.00    1415.78       0.00    1415.78       28.32    37.87   1.002
  S230                       0.00       0.00       0.00       0.00       0.00       0.00       0.00        0.00     0.00   0.000
  S231                       0.00       0.00       0.00       0.00       0.00       0.00       0.00        0.00     0.00   0.000
  S232                       0.00       0.00       0.00       0.00       0.00       0.00       0.00        0.00     0.00   0.000
  S233                       0.00       0.00       0.00       0.00       0.00       0.00       0.00        0.00     0.00   0.000
  S234                       0.00       0.00       0.00       0.00       0.00       0.00       0.00        0.00     0.00   0.000
  S235                       0.00       0.00       0.00       0.00       0.00       0.00       0.00        0.00     0.00   0.000
  S236                       0.00       0.00       0.00       0.00       0.00       0.00       0.00        0.00     0.00   0.000
  S237                    1398.85       0.00       0.00       0.00    1399.62       0.00    1399.62      258.93   244.27   1.001
  S238                       0.00       0.00       0.00       0.00       0.00       0.00       0.00        0.00     0.00   0.000
  S239                       0.00       0.00       0.00       0.00       0.00       0.00       0.00        0.00     0.00   0.000
  S240                       0.00       0.00       0.00       0.00       0.00       0.00       0.00        0.00     0.00   0.000
  S241                    1374.66       0.00       0.00       0.00    1376.78       0.00    1376.78       34.42    40.05   1.002
  S242                       0.00       0.00       0.00       0.00       0.00       0.00       0.00        0.00     0.00   0.000
  S243                       0.00       0.00       0.00       0.00       0.00       0.00       0.00        0.00     0.00   0.000
  S244                    1365.56       0.00       0.00       0.00    1366.94       0.00    1366.94       92.27   102.84   1.001
  S245                    1369.60       0.00       0.00       0.00    1371.23       0.00    1371.23       65.13    74.22   1.001
  S246                       0.00       0.00       0.00       0.00       0.00       0.00       0.00        0.00     0.00   0.000
  S247                       0.00       0.00       0.00       0.00       0.00       0.00       0.00        0.00     0.00   0.000
  S248                       0.00       0.00       0.00       0.00       0.00       0.00       0.00        0.00     0.00   0.000
  S249                       0.00       0.00       0.00       0.00       0.00       0.00       0.00        0.00     0.00   0.000
  S250                       0.00       0.00       0.00       0.00       0.00       0.00       0.00        0.00     0.00   0.000
  S251                       0.00       0.00       0.00       0.00       0.00       0.00       0.00        0.00     0.00   0.000
  S252                    1425.46       0.00       0.00       0.00    1426.93       0.00    1426.93       82.05    90.41   1.001
  S253                       0.00       0.00       0.00       0.00       0.00       0.00       0.00        0.00     0.00   0.000
  S254                       0.00       0.00       0.00       0.00       0.00       0.00       0.00        0.00     0.00   0.000
  S255                       0.00       0.00       0.00       0.00       0.00       0.00       0.00        0.00     0.00   0.000
  S256                       0.00       0.00       0.00       0.00       0.00       0.00       0.00        0.00     0.00   0.000
  S257                    1364.67       0.00       0.00       0.00    1365.98       0.00    1365.98      102.45   112.96   1.001
  S258                       0.00       0.00       0.00       0.00       0.00       0.00       0.00        0.00     0.00   0.000
  S259                       0.00       0.00       0.00       0.00       0.00       0.00       0.00        0.00     0.00   0.000
  S260                       0.00       0.00       0.00       0.00       0.00       0.00       0.00        0.00     0.00   0.000
  S261                       0.00       0.00       0.00       0.00       0.00       0.00       0.00        0.00     0.00   0.000
  S262                       0.00       0.00       0.00       0.00       0.00       0.00       0.00        0.00     0.00   0.000
  S263                       0.00       0.00       0.00       0.00       0.00       0.00       0.00        0.00     0.00   0.000
  S264                       0.00       0.00       0.00       0.00       0.00       0.00       0.00        0.00     0.00   0.000
  S265                       0.00       0.00       0.00       0.00       0.00       0.00       0.00        0.00     0.00   0.000
  S266                       0.00       0.00       0.00       0.00       0.00       0.00       0.00        0.00     0.00   0.000
  S267                       0.00       0.00       0.00       0.00       0.00       0.00       0.00        0.00     0.00   0.000
  S268                       0.00       0.00       0.00       0.00       0.00       0.00       0.00        0.00     0.00   0.000
  S269                       0.00       0.00       0.00       0.00       0.00       0.00       0.00        0.00     0.00   0.000
  S270                       0.00       0.00       0.00       0.00       0.00       0.00       0.00        0.00     0.00   0.000
  S271                    1359.91       0.00       0.00       0.00    1361.72       0.00    1361.72       51.06    60.01   1.001
  S272                       0.00       0.00       0.00       0.00       0.00       0.00       0.00        0.00     0.00   0.000
  S273                       0.00       0.00       0.00       0.00       0.00       0.00       0.00        0.00     0.00   0.000
  
  
  ******************
  Node Depth Summary
  ******************
  
  ---------------------------------------------------------------------------------
                                 Average  Maximum  Maximum  Time of Max    Reported
                                   Depth    Depth      HGL   Occurrence   Max Depth
  Node                 Type       Meters   Meters   Meters  days hr:min      Meters
  ---------------------------------------------------------------------------------
  0                    JUNCTION     0.00     0.00  1872.50     0  00:00        0.00
  1                    JUNCTION     0.00     0.00  1762.50     0  00:00        0.00
  2                    JUNCTION     0.00     0.00  1680.00     0  00:00        0.00
  3                    JUNCTION     1.18    70.73  1503.23   227  11:39       37.25
  4                    JUNCTION     0.02     0.10  1955.10   259  03:00        0.10
  5                    JUNCTION     0.03     0.15  1817.65   259  03:18        0.14
  6                    JUNCTION     4.51   128.22  1478.22   227  11:39      119.75
  7                    JUNCTION     0.49     1.56  1626.56   237  07:31        1.55
  8                    JUNCTION     0.49     1.56  1626.56   237  07:32        1.55
  9                    JUNCTION     0.47     1.18  1626.18   237  07:33        1.17
  10                   JUNCTION     0.48     1.43  1626.43   237  07:13        1.41
  11                   JUNCTION     0.04     0.18  1927.68   259  03:03        0.18
  12                   JUNCTION     0.05     0.24  1762.74   262  21:02        0.24
  13                   JUNCTION     0.06     0.20  1515.20   237  07:02        0.20
  14                   JUNCTION     6.29   147.54  1470.04   227  11:39      147.30
  15                   JUNCTION     6.28   147.48  1469.98   227  11:39      147.20
  16                   JUNCTION     6.09   147.06  1469.56   227  11:39      146.84
  17                   JUNCTION     0.02     0.11  1790.11   259  03:01        0.11
  18                   JUNCTION     0.07     0.21  1625.21   259  04:18        0.21
  19                   JUNCTION     0.34    23.66  1786.16     2  09:02        0.72
  20                   JUNCTION     0.00     0.01  1790.01   227  18:31        0.00
  21                   JUNCTION     0.05     0.23  1707.73   262  21:02        0.23
  22                   JUNCTION     0.21    20.91  1783.41     2  09:02        0.56
  23                   JUNCTION     0.00     0.00  1790.00   307  18:25        0.00
  24                   JUNCTION     0.93    77.87  1785.37     2  09:02        7.62
  25                   JUNCTION     0.07   204.00  1939.00     2  09:02        0.16
  26                   JUNCTION     0.29     0.81  1488.31   259  03:07        0.81
  27                   JUNCTION     0.05     0.17  1515.17   259  03:54        0.17
  28                   JUNCTION     0.03     0.15  1625.15   259  03:07        0.15
  29                   JUNCTION     0.93    87.42  1794.92     2  09:02        7.63
  30                   JUNCTION     0.01   204.00  1939.00     2  09:02        0.01
  31                   JUNCTION    14.43   201.85  1469.35   259  03:00      201.85
  32                   JUNCTION    14.41   201.00  1468.50   163  20:58      201.00
  33                   JUNCTION     0.14     0.53  1488.03   259  03:05        0.53
  34                   JUNCTION     0.02     0.07  1515.07   262  19:00        0.07
  35                   JUNCTION    14.41   201.00  1468.50   163  20:58      201.00
  36                   JUNCTION    14.40   201.00  1468.50   163  20:58      201.00
  37                   JUNCTION    14.39   201.00  1468.50   163  20:58      201.00
  38                   JUNCTION     0.36   156.45  1836.45     2  09:02       29.21
  39                   JUNCTION     0.08   204.00  1911.50     2  09:02        1.71
  40                   JUNCTION    14.37   201.00  1468.50   168  21:11      201.00
  41                   JUNCTION    14.35   201.00  1468.50   168  21:11      201.00
  42                   JUNCTION     0.77     8.48  1468.48   259  03:10        8.39
  43                   JUNCTION     0.24   200.52  1880.52     2  09:02       29.21
  44                   JUNCTION     0.02   203.40  1910.90     2  09:02        1.71
  45                   JUNCTION     0.10     0.50  1460.50   259  03:16        0.49
  46                   JUNCTION     0.01     0.08  1680.08   262  19:00        0.08
  47                   JUNCTION     0.07     0.27  1570.27   262  21:00        0.27
  48                   JUNCTION     0.23     0.96  1625.96   262  21:11        0.95
  49                   JUNCTION     0.23     0.96  1625.96   262  21:11        0.95
  50                   JUNCTION     0.00     0.05  1652.55   262  19:10        0.04
  51                   JUNCTION    12.77   201.00  1468.50   168  21:12      201.00
  52                   JUNCTION    12.71   201.00  1468.50   254  20:56      201.00
  53                   JUNCTION     0.23     0.96  1625.96   262  21:11        0.95
  54                   JUNCTION     0.23     0.96  1625.96   262  21:11        0.95
  55                   JUNCTION    12.71   201.00  1468.50   227  18:31      201.00
  56                   JUNCTION    12.64   201.00  1468.50   259  02:41      201.00
  57                   JUNCTION     0.61   159.05  1756.55     2  09:02        6.94
  58                   JUNCTION     0.12   204.00  1829.00     2  09:02        0.41
  59                   JUNCTION     0.23     0.96  1625.96   262  21:11        0.95
  60                   JUNCTION     0.23     0.96  1625.96   262  21:11        0.95
  61                   JUNCTION     0.37     9.84  1607.34     2  09:02        0.97
  62                   JUNCTION     0.01   131.73  1756.73     2  09:02        0.07
  63                   JUNCTION     0.23     0.96  1625.96   262  21:11        0.95
  64                   JUNCTION     0.23     0.96  1625.96   262  21:11        0.95
  65                   JUNCTION     0.23     0.96  1625.96   262  21:11        0.95
  66                   JUNCTION    11.43   201.00  1468.50   259  02:54      201.00
  67                   JUNCTION     0.80   108.68  1678.68     2  09:02       10.93
  68                   JUNCTION     0.12    39.67  1637.17     2  09:02        0.41
  69                   JUNCTION     0.07     0.29  1597.79   262  21:06        0.29
  70                   JUNCTION     0.23     0.96  1625.96   262  21:12        0.95
  71                   JUNCTION     0.23     0.96  1625.96   262  21:11        0.95
  72                   JUNCTION    11.06   200.86  1468.36   262  21:00      200.85
  73                   JUNCTION    10.97   200.82  1468.32   262  21:00      200.82
  74                   JUNCTION     0.80   204.00  1774.00     2  09:02       10.92
  75                   JUNCTION     0.01   121.58  1719.08     2  09:02        0.07
  76                   JUNCTION     0.59    13.29  1583.29   262  21:03       13.19
  77                   JUNCTION     0.00     0.04  1597.54   262  21:06        0.04
  78                   JUNCTION     0.04     0.21  1652.71   262  21:04        0.21
  79                   JUNCTION    10.97   200.82  1468.32   262  21:00      200.82
  80                   JUNCTION    10.88   200.79  1468.29   262  21:00      200.78
  81                   JUNCTION     0.77   114.57  1657.07     2  09:02        9.10
  82                   JUNCTION     0.14    94.46  1664.46     2  09:02        0.43
  83                   JUNCTION     9.84   195.07  1462.57   262  21:01      195.05
  84                   JUNCTION     0.19    39.91  1582.41     2  09:02        0.60
  85                   JUNCTION     0.02   201.00  1771.00     2  09:02        0.08
  86                   JUNCTION     0.52     7.16  1494.66   262  21:06        7.06
  87                   JUNCTION     0.04     0.16  1515.16   262  21:01        0.16
  88                   JUNCTION     0.46     6.01  1576.01   262  21:05        5.97
  89                   JUNCTION     0.52     7.17  1494.67   262  21:06        7.05
  90                   JUNCTION     0.01     0.04  1515.04   262  21:02        0.04
  91                   JUNCTION     0.07     0.30  1570.30   262  21:05        0.29
  92                   JUNCTION     0.18     0.70  1625.70   262  21:06        0.70
  93                   JUNCTION     0.00     0.01  1652.51   262  21:06        0.01
  94                   JUNCTION     0.04     0.19  1625.19   262  21:06        0.19
  95                   JUNCTION     0.37     2.51  1462.51   262  21:06        2.47
  96                   JUNCTION     0.07     0.30  1487.80   262  21:06        0.30
  97                   JUNCTION     0.40     0.78  1378.28   312  00:07        0.77
  98                   JUNCTION     0.00     0.00  1405.00   312  00:12        0.00
  99                   JUNCTION     0.24     0.79  1460.79   262  21:04        0.78
  100                  JUNCTION     0.03     0.16  1487.66   262  21:00        0.16
  101                  JUNCTION     0.13     0.53  1625.53   262  21:01        0.53
  102                  JUNCTION     0.30     0.54  1378.04   259  03:12        0.53
  103                  JUNCTION     0.00     0.00  1405.00   259  01:01        0.00
  104                  JUNCTION     0.09     0.50  1460.50   262  21:32        0.40
  105                  JUNCTION     0.16     2.17  1544.67   262  22:03        2.17
  106                  JUNCTION     0.04     0.22  1625.22   262  21:00        0.22
  107                  JUNCTION     0.76    34.91  1439.91     2  09:50       26.15
  108                  JUNCTION     0.14     9.53  1442.03     2  09:49        1.35
  109                  JUNCTION     0.51    24.59  1457.09   262  21:33       22.23
  110                  JUNCTION     0.25     1.73  1599.23   262  21:00        1.73
  111                  JUNCTION     0.02     0.12  1570.12   262  21:00        0.12
  112                  JUNCTION     0.23    31.09  1436.09     2  09:50       21.10
  113                  JUNCTION     0.01     3.59  1436.09     2  09:50        0.12
  114                  JUNCTION     0.25     0.44  1350.44   259  03:13        0.44
  115                  JUNCTION     0.04     0.09  1377.59   259  03:13        0.09
  116                  JUNCTION     0.01     0.09  1460.09   262  21:33        0.07
  117                  JUNCTION     0.00     0.02  1570.02   262  21:09        0.02
  118                  JUNCTION     0.02     0.11  1625.11   262  19:01        0.11
  119                  JUNCTION     0.14     1.12  1406.12   259  04:47        1.11
  120                  JUNCTION     0.03     0.19  1405.19   259  04:05        0.19
  121                  JUNCTION     0.07     0.14  1350.14   259  03:21        0.14
  122                  JUNCTION     0.00     0.00  1377.50   259  03:13        0.00
  123                  JUNCTION     0.31    19.56  1452.06   262  21:33       17.67
  124                  JUNCTION     0.22     1.14  1598.64   262  21:00        1.14
  125                  JUNCTION     0.05     0.17  1542.67   262  22:11        0.17
  126                  JUNCTION     0.04     0.26  1597.76   262  19:04        0.26
  127                  JUNCTION     0.03     0.19  1377.69   259  04:09        0.19
  128                  JUNCTION     0.00     0.00  1570.00   262  19:08        0.00
  129                  JUNCTION     0.14     0.52  1488.02   262  21:04        0.52
  130                  JUNCTION     6.57   194.14  1434.14   259  03:03      193.62
  131                  JUNCTION     6.13   190.56  1430.56   259  03:03      190.02
  132                  JUNCTION     1.31    37.94  1360.44     2  09:54       37.45
  133                  JUNCTION     0.08    10.44  1360.44     2  09:54        9.95
  134                  JUNCTION     0.04     0.17  1542.67   262  22:15        0.17
  135                  JUNCTION     6.13   190.43  1430.43   259  03:03      189.89
  136                  JUNCTION     5.69   186.73  1426.73   259  03:03      186.17
  137                  JUNCTION     5.19   181.53  1421.53   259  03:03      180.94
  138                  JUNCTION     1.11    32.36  1354.86     2  09:54       31.95
  139                  JUNCTION     0.01     6.84  1356.84     2  09:54        6.41
  140                  JUNCTION     0.19    19.55  1452.05   262  21:33       17.67
  141                  JUNCTION     0.07     0.30  1460.30   262  20:23        0.30
  142                  JUNCTION     0.01     0.07  1542.57   262  21:02        0.07
  143                  JUNCTION     0.05     0.29  1542.79   262  21:00        0.29
  144                  JUNCTION     0.04     0.26  1570.26   262  21:00        0.26
  145                  JUNCTION     0.08     0.42  1570.42   262  21:06        0.42
  146                  JUNCTION     0.03     0.17  1625.17   262  21:17        0.16
  147                  JUNCTION     0.06     0.29  1487.79   262  21:14        0.28
  148                  JUNCTION     5.19   181.53  1421.53   259  03:03      180.94
  149                  JUNCTION     5.57   192.41  1404.91   259  03:04      191.80
  150                  JUNCTION     4.31   176.34  1416.34   259  03:03      175.74
  151                  JUNCTION     0.00     0.01  1542.51   262  21:06        0.01
  152                  JUNCTION     0.12     0.48  1487.98   262  21:06        0.48
  153                  JUNCTION     0.19     0.85  1323.35     2  09:58        0.85
  154                  JUNCTION     0.29     3.38  1518.38   262  21:00        3.37
  155                  JUNCTION     0.11     0.35  1295.35     2  09:58        0.35
  156                  JUNCTION     0.28     2.96  1517.96   262  21:00        2.95
  157                  JUNCTION     0.13     0.51  1488.01   262  21:03        0.51
  158                  JUNCTION     0.13     0.51  1488.01   262  21:03        0.51
  159                  JUNCTION     0.13     0.51  1488.01   262  21:03        0.51
  160                  JUNCTION     0.13     0.51  1488.01   262  21:03        0.51
  161                  JUNCTION     0.14    27.55  1295.05   259  04:06       26.41
  162                  JUNCTION     0.04    26.80  1294.30   259  04:06       25.81
  163                  JUNCTION     0.06    27.55  1295.05   259  04:07       26.41
  164                  JUNCTION     0.45    27.56  1432.56   262  21:42       25.46
  165                  JUNCTION     0.01     0.16  1432.66   262  21:31        0.16
  166                  JUNCTION     0.04     0.23  1515.23   262  19:09        0.22
  167                  JUNCTION     0.44    24.76  1429.76   262  21:42       22.81
  168                  JUNCTION     0.02     0.09  1432.59   262  19:00        0.09
  169                  JUNCTION     0.09     0.34  1487.84   262  22:09        0.34
  170                  JUNCTION     0.09     0.34  1487.84   262  22:07        0.34
  171                  JUNCTION     0.09     0.34  1487.84   262  22:11        0.34
  172                  JUNCTION     0.09     0.34  1487.84   262  22:11        0.34
  173                  JUNCTION     0.09     0.34  1487.84   262  22:10        0.34
  174                  JUNCTION     0.01     0.06  1377.56   262  21:00        0.06
  175                  JUNCTION     0.00     0.00  1432.50     0  00:00        0.00
  176                  JUNCTION     0.76    55.04  1295.04   259  04:06       53.91
  177                  JUNCTION     0.09     0.34  1487.84   262  22:11        0.34
  178                  JUNCTION     0.09     0.34  1487.84   262  22:11        0.34
  179                  JUNCTION     0.09     0.34  1487.84   262  22:11        0.34
  180                  JUNCTION     0.13     0.46  1322.96   262  21:02        0.46
  181                  JUNCTION     0.09     0.34  1487.84   262  22:11        0.34
  182                  JUNCTION     0.09     0.34  1487.84   262  22:11        0.34
  183                  JUNCTION     0.09     0.34  1487.84   262  22:11        0.34
  184                  JUNCTION     5.60   172.93  1357.93   259  04:00      172.88
  185                  JUNCTION     5.39   169.06  1354.06   259  04:01      168.99
  186                  JUNCTION     0.54    22.20  1399.70   163  19:31       21.16
  187                  JUNCTION     0.00     0.05  1405.05   262  19:39        0.02
  188                  JUNCTION     0.09     0.33  1487.83   262  22:08        0.33
  189                  JUNCTION     0.09     0.34  1487.84   262  22:11        0.34
  190                  JUNCTION     0.09     0.34  1487.84   262  22:11        0.34
  191                  JUNCTION     0.00     0.01  1377.51   262  21:02        0.01
  192                  JUNCTION     5.41   169.66  1354.66   259  04:01      169.60
  193                  JUNCTION     5.17   165.18  1350.18   259  04:01      165.10
  194                  JUNCTION     0.44    13.82  1391.32   163  19:31       12.90
  195                  JUNCTION     0.00     0.00  1405.00   150  13:46        0.00
  196                  JUNCTION     0.01     0.08  1322.58   262  21:07        0.08
  197                  JUNCTION     4.28   148.53  1333.53   259  04:01      148.38
  198                  JUNCTION     4.06   144.46  1329.46   259  04:02      144.30
  199                  JUNCTION     0.18    19.54  1314.54   262  19:17       17.38
  200                  JUNCTION     0.08     0.53  1378.03   163  19:57        0.53
  201                  JUNCTION     0.02     0.12  1405.12   262  19:13        0.12
  202                  JUNCTION     0.03     0.19  1432.69   262  19:11        0.19
  203                  JUNCTION     0.03     0.16  1432.66   262  21:04        0.16
  204                  JUNCTION     0.04     0.21  1460.21   262  21:04        0.21
  205                  JUNCTION     0.05     0.25  1487.75   262  21:08        0.25
  206                  JUNCTION     0.03     0.18  1487.68   262  21:58        0.18
  207                  JUNCTION     0.09     0.34  1487.84   262  21:58        0.34
  208                  JUNCTION     0.16     0.51  1295.51   259  03:40        0.51
  209                  JUNCTION     0.17     0.54  1295.54   259  03:26        0.54
  210                  JUNCTION     4.05   144.27  1329.27   259  04:02      144.11
  211                  JUNCTION     3.82   140.02  1325.02   259  04:02      139.84
  212                  JUNCTION     3.58   135.77  1320.77   259  04:03      135.56
  213                  JUNCTION     0.16     0.49  1295.49   259  04:11        0.49
  214                  JUNCTION     0.16     0.54  1295.54   259  03:27        0.53
  215                  JUNCTION     3.58   135.62  1320.62   259  04:03      135.40
  216                  JUNCTION     3.05   131.21  1316.21   259  04:04      130.96
  217                  JUNCTION     5.29   149.71  1307.21   259  04:05      149.35
  218                  JUNCTION     0.18     2.89  1242.89   259  07:31        2.86
  219                  JUNCTION     0.33     2.89  1242.89   259  07:29        2.86
  220                  JUNCTION     0.04     0.19  1460.19   262  21:22        0.19
  221                  JUNCTION     4.37   138.09  1295.59   259  04:06      137.32
  222                  JUNCTION     4.21   136.79  1294.29   259  04:06      135.81
  223                  JUNCTION     1.39    30.40  1242.90   259  07:29       30.36
  224                  JUNCTION     0.03     2.89  1242.89   259  07:27        2.86
  225                  JUNCTION     0.05     0.26  1405.26   262  21:08        0.26
  226                  JUNCTION     0.15     0.47  1295.47   259  04:32        0.46
  227                  JUNCTION     5.20   145.48  1302.98   259  04:04      145.12
  228                  JUNCTION     0.31     2.88  1242.88   259  07:29        2.85
  229                  JUNCTION     0.30     4.64  1327.14   163  19:56        4.63
  230                  JUNCTION     0.04     0.28  1350.28   163  19:58        0.28
  231                  JUNCTION     0.04     0.21  1377.71   262  21:08        0.21
  232                  JUNCTION     0.27     3.21  1325.71   163  19:56        3.21
  233                  JUNCTION     0.00     0.04  1350.04   163  19:58        0.04
  234                  JUNCTION     3.85   119.39  1276.89   259  04:05      118.90
  235                  JUNCTION     8.84   146.16  1276.16   259  04:05      145.64
  236                  JUNCTION     8.68   131.61  1261.61   259  04:06      131.08
  237                  JUNCTION     8.70   125.34  1255.34   259  04:06      124.79
  238                  JUNCTION     9.62   122.80  1252.80   259  04:06      122.36
  239                  JUNCTION     0.04     0.25  1322.75   163  19:58        0.25
  240                  JUNCTION     8.25   135.08  1265.08   259  04:05      134.59
  241                  JUNCTION     8.18   131.16  1261.16   259  04:06      130.66
  242                  JUNCTION     0.26     1.94  1296.94   262  21:07        1.92
  243                  JUNCTION     7.35   130.56  1260.56   259  04:05      130.12
  244                  JUNCTION     7.87   131.20  1261.20   259  04:06      130.74
  245                  JUNCTION     7.78   128.04  1258.04   259  04:06      127.55
  246                  JUNCTION     8.70   125.34  1255.34   259  04:06      124.79
  247                  JUNCTION     8.68   119.46  1249.46   259  04:06      119.04
  248                  JUNCTION     8.90   117.68  1247.68   259  04:06      117.32
  249                  JUNCTION     2.07    57.37  1242.37   259  06:13       57.34
  250                  JUNCTION     0.07     2.85  1242.85   259  07:29        2.82
  251                  JUNCTION     0.08     0.49  1295.49   262  19:23        0.48
  252                  JUNCTION     0.04     0.22  1322.72   262  21:17        0.21
  253                  JUNCTION     0.04     0.22  1322.72   262  21:29        0.22
  254                  JUNCTION     0.01     0.11  1295.11   262  21:03        0.11
  255                  JUNCTION     8.25   113.26  1243.26   259  04:07      112.90
  256                  JUNCTION    23.22    88.39  1190.89   259  04:02       88.31
  257                  JUNCTION     0.29    30.34  1242.84   259  07:29       30.31
  258                  JUNCTION    23.22    88.40  1190.90   259  04:02       88.32
  259                  JUNCTION     4.22    78.09  1208.09   259  04:06       77.87
  260                  JUNCTION     2.57    76.46  1233.96   259  04:13       76.32
  261                  JUNCTION     8.42   103.09  1205.59   259  04:07      102.89
  262                  JUNCTION    24.02   117.92  1192.92   259  04:06      117.71
  263                  JUNCTION     0.03     0.16  1432.66   262  21:21        0.16
  264                  JUNCTION    20.11    92.02  1167.02   259  04:07       91.86
  265                  JUNCTION     0.06     9.18  1139.18   262  23:10        5.34
  266                  JUNCTION     0.89    91.63  1139.13   262  23:10       87.79
  267                  JUNCTION     0.03     0.16  1295.16   262  21:33        0.16
  268                  JUNCTION    15.93   121.52  1141.52   262  23:09      116.83
  269                  JUNCTION    41.92   146.50  1139.00   262  23:10      142.66
  270                  OUTFALL      0.35     1.00  1121.00   168  21:58        1.00
  271                  OUTFALL      0.51     0.92  1080.92   259  04:07        0.92
  272                  OUTFALL      0.13     1.00  1036.00   227  19:37        1.00
  
  
  *******************
  Node Inflow Summary
  *******************
  
  -------------------------------------------------------------------------------------------------
                                  Maximum  Maximum                  Lateral       Total        Flow
                                  Lateral    Total  Time of Max      Inflow      Inflow     Balance
                                   Inflow   Inflow   Occurrence      Volume      Volume       Error
  Node                 Type           LPS      LPS  days hr:min    10^6 ltr    10^6 ltr     Percent
  -------------------------------------------------------------------------------------------------
  0                    JUNCTION      0.00     0.00     0  00:00           0           0       0.000 ltr
  1                    JUNCTION      0.00     0.00     0  00:00           0           0       0.000 ltr
  2                    JUNCTION      0.00     0.00     0  00:00           0           0       0.000 ltr
  3                    JUNCTION      0.00   715.85   168  21:16           0        6.74       0.316
  4                    JUNCTION    263.34   263.34   259  03:00         371         371      -0.057
  5                    JUNCTION    160.76   423.84   259  03:00         210         581      -0.186
  6                    JUNCTION      0.00  1789.91   262  19:24           0        43.3      -0.244
  7                    JUNCTION    326.36   345.50   237  07:31         967    1.01e+03      -0.000
  8                    JUNCTION    329.40   329.40   259  03:00         489         598       0.035
  9                    JUNCTION      0.00   620.80   237  07:13           0    1.59e+03       0.007
  10                   JUNCTION    112.28   279.27   259  04:09         138         692       0.000
  11                   JUNCTION    263.34   263.34   259  03:00         374         374      -0.197
  12                   JUNCTION    467.05   467.05   262  21:00         499         499       0.001
  13                   JUNCTION    419.89   419.89   237  07:00         854         854      -0.025
  14                   JUNCTION    518.13   909.56   262  19:24         791         808      -0.044
  15                   JUNCTION    131.32   900.24   262  19:24         190         525      -0.089
  16                   JUNCTION    135.75  1989.02   262  19:08         149    1.18e+03      -0.078
  17                   JUNCTION    233.11   233.11   259  03:00         325         325      -0.003
  18                   JUNCTION    152.16   731.17   259  04:04         196    1.79e+03      -0.000
  19                   JUNCTION     53.53 54888.98     2  09:02        62.3    3.53e+03      14.083
  20                   JUNCTION      0.00   263.37   259  03:03           0         374     -89.216
  21                   JUNCTION    615.26   615.26   262  21:00         843         843      -0.002
  22                   JUNCTION      0.00 64803.20     2  09:02           0     3.1e+03      -0.229
  23                   JUNCTION      0.00     0.00    74  15:20           0    0.000472       0.000
  24                   JUNCTION      0.00301290.10     2  09:02           0    3.11e+03      -1.693
  25                   JUNCTION      0.002976216.44     2  09:02           0    3.16e+03       0.813
  26                   JUNCTION    181.93  1109.35   259  03:07         209    2.29e+03       0.000
  27                   JUNCTION    267.68   960.31   259  03:53         321    2.11e+03      -0.001
  28                   JUNCTION    165.21   397.60   259  03:00         220         545      -0.051
  29                   JUNCTION      0.00 78234.77     2  09:02           0    3.11e+03      -2.602
  30                   JUNCTION      0.004196939.49     2  09:02           0        89.7       0.000
  31                   JUNCTION    241.61  1639.92   262  19:08         315    1.55e+03       0.005
  32                   JUNCTION      0.00   727.50   262  19:08           0         844       0.059
  33                   JUNCTION      0.00  1146.48   259  03:05           0    2.34e+03      -0.000
  34                   JUNCTION     37.93    44.30   262  19:00        18.7        48.4       0.000
  35                   JUNCTION    248.09   795.44   262  19:08         300    1.01e+03       0.000
  36                   JUNCTION     69.01  1386.49   262  19:08        72.9    1.62e+03       0.013
  37                   JUNCTION    654.39   746.08   262  19:08         859    1.45e+03       0.021
  38                   JUNCTION     30.30 29816.61     2  09:02          21    3.12e+03      -4.627
  39                   JUNCTION     38.927674132.18     2  09:02        32.7    3.29e+03       2.305
  40                   JUNCTION    127.32   611.84   262  19:08        85.6    1.07e+03       0.000
  41                   JUNCTION    106.11   794.51   186  21:14         114    2.46e+03       0.012
  42                   JUNCTION      0.00  1421.42   259  03:13           0    2.91e+03       0.005
  43                   JUNCTION     43.68 12257.96     2  09:02        35.2     3.2e+03      -0.213
  44                   JUNCTION      0.00278557.72     2  09:02           0        46.1       0.000
  45                   JUNCTION      0.00  1624.03   259  03:06           0    2.92e+03      -0.008
  46                   JUNCTION     81.23    81.23   262  19:00        54.4        54.4      -0.484
  47                   JUNCTION    806.55   806.55   262  21:00    1.13e+03    1.13e+03      -0.000
  48                   JUNCTION     21.08    39.20   262  21:02        27.9          41       0.000
  49                   JUNCTION      0.00    60.31   262  19:10           0        43.6       0.067
  50                   JUNCTION      0.00    81.07   262  19:00           0        54.7      -2.544
  51                   JUNCTION    613.88   966.07   221  18:05         774    3.22e+03       0.010
  52                   JUNCTION     71.41   518.08   221  18:05        51.5    1.66e+03      -0.014
  53                   JUNCTION      0.00    68.55   262  21:18           0        71.5       0.005
  54                   JUNCTION      0.00    30.31   262  21:05           0        30.5       0.000
  55                   JUNCTION    136.46   530.77   221  18:05        99.5    1.68e+03       0.000
  56                   JUNCTION      0.00  1006.34   221  18:05           0    3.34e+03       0.007
  57                   JUNCTION      0.00  6733.44     2  09:02           0    3.06e+03      -0.001
  58                   JUNCTION      0.005307099.72     2  09:02           0    3.31e+03       1.557
  59                   JUNCTION    138.91   138.91   262  19:00        75.3        92.6       0.000
  60                   JUNCTION      0.00    73.75   262  21:00           0        78.6       0.004
  61                   JUNCTION     42.86121440.74     2  09:02        39.5    3.24e+03      -0.710
  62                   JUNCTION      0.00670548.74     2  09:02           0         158       0.000
  63                   JUNCTION    156.77   183.63   262  21:00        74.3         136       0.001
  64                   JUNCTION      0.00   169.24   262  21:04           0         147       0.003
[...]
  362                     1.00   0.00  0.00  0.00  0.09  0.91  0.00  0.00  0.05  0.00
  363                     1.00   0.00  0.00  0.00  0.40  0.60  0.00  0.00  0.99  0.00
  364                     1.00   0.00  0.00  0.00  1.00  0.00  0.00  0.00  0.96  0.00
  365                     1.00   0.00  0.00  0.00  1.00  0.00  0.00  0.00  0.11  0.00
  366                     1.00   0.00  0.00  0.00  1.00  0.00  0.00  0.00  0.00  0.00
  367                     1.00   0.00  0.00  0.00  0.95  0.05  0.00  0.00  0.09  0.00
  368                     1.00   0.00  0.00  0.00  1.00  0.00  0.00  0.00  0.00  0.00
  369                     1.00   0.00  0.00  0.00  1.00  0.00  0.00  0.00  0.00  0.00
  370                     1.00   0.00  0.08  0.00  0.91  0.00  0.00  0.00  0.04  0.00
  
  
  *************************
  Conduit Surcharge Summary
  *************************
  
  ----------------------------------------------------------------------------
                                                           Hours        Hours 
                         --------- Hours Full --------   Above Full   Capacity
  Conduit                Both Ends  Upstream  Dnstream   Normal Flow   Limited
  ----------------------------------------------------------------------------
  1                           0.01      0.01      0.01    736.44         0.01
  4                         166.06    169.09    166.24   1443.87       123.23
  5                         138.44    169.09    138.44   3659.22       138.44
  7                           0.01      0.01   1949.33      0.01         0.01
  8                           0.01      0.01     57.01      0.01         0.01
  9                         160.74    160.74    206.33      0.01         0.01
  10                        220.08    220.08    327.57      0.05         0.01
  11                        220.08    220.08    327.36      0.05         0.01
  15                          4.56      4.93     89.03      5.05         4.46
  16                          0.01      0.01      0.01    183.45         0.01
  17                          0.01      0.01      0.01    148.30         0.01
  20                        378.78    379.21    378.78   2307.61       344.91
  21                        378.06    379.21    378.08   2955.17       369.12
  22                        378.05    378.78    378.08   2846.43       365.29
  23                         69.27    166.24     69.27   4401.43        69.27
  24                         69.27     69.27    138.44   3902.62         0.01
  26                          0.01      0.01      0.17      0.01         0.01
  31                       1949.33   1949.33   2393.31   6398.26         0.15
  32                       1728.34   1949.33   1728.34   5482.40      1728.34
  33                          0.01      0.01    762.66      0.01         0.01
  34                          0.01    762.66      0.01   5375.58         0.01
  35                        269.08    269.08   1039.04      0.01         0.01
  36                       2631.78   2633.47   2631.83   3267.47      2240.72
  37                       2632.13   2633.47   2632.22   2993.92      2120.97
  43                          0.16      0.16      0.16     17.77         0.03
  45                          0.39      0.39      0.70      0.02         0.01
  46                          0.59      0.59     61.67      0.01         0.01
  47                          0.70      0.70      0.70      0.58         0.48
  49                          0.01      0.01    440.63      0.01         0.01
  51                         61.67     61.68     61.68     16.12        30.18
  52                          0.58      0.58     61.68      0.01         0.01
  53                          1.01    705.81      1.01   7886.97         0.95
  54                          0.01      0.01      0.01     99.52         0.01
  57                          0.01      1.67      0.01    724.51         0.01
  58                          1.67      1.67   1340.90      0.01         0.01
  60                          0.83      0.83      1.19      0.01         0.01
  61                          0.83      0.83      0.84      0.01         0.05
  62                       2630.05   2631.83   2630.10   3207.21      2095.48
  63                       2630.06   2630.09   2632.21   3371.78       340.73
  64                       2628.79   2630.10   2628.93   2971.87      2025.50
  65                       2627.37   2630.10   2627.38   3709.86      2360.21
  66                       2624.57   2628.82   2624.57   4077.44      2469.04
  67                       2624.55   2624.56   2627.27   3803.19       197.78
  68                       2419.77   2624.57   2419.77   6480.61      2373.08
  69                          1.19      1.19      1.19     21.75         1.17
  70                          1.02      1.02      1.50      0.01         0.01
  71                          0.02      1.50      0.02      1.12         0.01
  72                       2407.87   2419.78   2407.87   4332.37      2392.27
  73                       2408.17   2419.78   2408.17   4320.43      2390.01
  74                          0.01      0.01    628.65      0.01         0.01
  75                          0.02      0.02    191.97      0.01         0.01
  76                          0.01      0.01      0.01      0.03         0.01
  77                        628.65    628.65   1544.27   6242.34         0.01
  78                        628.65    628.65   2190.40    591.43       594.19
  87                          0.01      0.01     14.06      0.01         0.01
  94                       2393.37   2407.87   2393.37   4367.01      2381.09
  95                       2393.37   2393.37   2408.17   4377.44         7.53
  96                          0.76    191.97      0.76   7886.97         0.76
  97                          0.01      0.01      0.13      0.01         0.01
  98                          0.12      0.12      0.13     35.41         0.10
  99                          0.71      0.71    506.28      0.01         0.01
  100                         0.12      0.13      0.12      0.77         0.09
  107                         0.01      0.01      0.01     14.23         0.01
  108                        30.33     30.36     30.35     24.36        14.72
  109                         0.12      0.12     30.35      0.01         0.01
  110                         0.82    503.24      0.82   7886.96         0.82
  111                       171.16    440.63    171.16   4320.37       171.16
  112                         0.01      0.01     47.25      0.01         0.01
  113                         0.01      0.01    171.16      0.01         0.01
  116                      1644.90   1728.34   1644.90   4529.10      1644.90
  117                      1644.90   1728.34   1644.90   4529.10      1644.90
  118                      1544.45   1644.81   1544.45   4527.55      1544.45
  119                      1544.45   1544.45   1644.81   4527.55         0.01
  120                         0.82      0.82    469.84      0.01         0.01
  121                         0.76      0.82      0.76    178.83         0.76
  122                         0.01    171.16      0.01   3904.26         0.01
  123                         0.01      0.01      0.01      0.15         0.01
  126                         0.84    469.84      0.84   7886.96         0.84
  127                         0.76      0.76      0.84      0.01         0.01
  128                         0.66      0.84      0.78      0.78         0.62
  129                      1990.72   2190.40   1990.72   5784.94      1990.72
  130                      1989.40   2190.40   1989.40   5790.40      1989.40
  131                         0.78      0.78    479.61      0.01         0.01
  132                         0.48      0.78      0.48    176.17         0.48
  133                        14.05     14.06     14.05      4.91         6.47
  134                         0.01      0.01    227.24      0.01         0.01
  135                         0.01    227.24      0.01   4278.63         0.01
  137                         0.01      0.01      0.01      7.27         0.01
  138                         0.01      0.01    101.79      0.01         0.01
  139                         0.01      0.01      0.01     64.12         0.01
  141                         0.01      2.90      0.01      0.01         0.01
  144                         0.01      0.01      0.01    704.37         0.01
  145                         0.01      0.01      0.01    699.27         0.01
  146                         0.01    101.79      0.01   3872.14         0.01
  148                         0.01      0.01      0.01     20.73         0.01
  149                         0.01      0.01      0.01   7567.48         0.01
  152                         0.01      0.01    279.47      0.01         0.01
  153                         0.01      0.01      0.01    150.40         0.01
  154                         0.01      0.01     11.93      0.01         0.01
  155                         0.01      0.01      0.01      1.34         0.01
  158                        15.23    279.47     15.23   4444.82        15.23
  159                         0.01      0.01     15.23      0.01         0.01
  160                         2.39      2.40      2.39    187.53         2.07
  161                         0.01      0.01      2.39      0.01         0.01
  163                         2.31     11.93      2.31   2098.89         2.31
  164                         0.01      0.01      2.31      0.01         0.01
  165                         0.01      2.31      0.01   1889.02         0.01
  166                         1.18    479.61      1.18   7886.95         1.18
  167                         0.01      0.01      0.87      0.01         0.01
  168                         1.00      1.18      1.16      0.82         0.79
  169                         0.75      0.75    199.29      0.01         0.01
  170                         0.75      1.16      0.75      1.33         0.75
  178                         0.01      0.01      0.01    520.88         0.01
  180                       270.86    270.86   1340.90      0.01         0.01
  181                       516.25   1340.90    516.25   6158.97       516.25
  182                      1316.91   1340.90   1316.92   4089.96      1215.78
  183                        84.27     84.27    227.90      0.01         0.01
  184                         0.01      0.01      0.01     96.08         0.01
  185                         4.74     14.02      4.93      1.16         0.03
  186                         0.01     14.02      0.01   1246.07         0.01
  190                         0.01      0.01     19.21      0.01         0.01
  192                         0.01      0.01      0.01    134.50         0.01
  194                         0.01      0.01   1085.30   7886.91         0.01
  196                         3.34      3.34    335.97      0.01         0.01
  197                        19.21     19.21     24.52     59.93         0.02
  200                      1707.93   1990.72   1707.93   5794.71      1707.93
  201                      1707.93   1707.93   1989.40   5790.33         0.01
  202                      1164.81   1707.93   1164.81   5866.26      1164.81
  203                      1164.81   1707.93   1164.81   5866.26      1164.81
  204                      1085.30   1519.64   1085.30   7886.93      1085.30
  205                         0.74      0.74   1085.30      0.01         0.01
  208                       250.52   1164.78    250.52   5866.31       250.52
  209                       250.52    250.52   1164.78   5866.31         0.01
  210                       250.53    250.53    346.69      0.01         0.01
  211                         0.01      0.01      4.93      0.01         0.01
  212                         0.01      0.01     32.47      0.01         0.01
  214                         0.01      0.01     38.16      0.01         0.01
  215                         0.01      0.01     18.00      0.01         0.01
  216                         0.01      0.01     38.16      0.01         0.01
  217                       346.68    346.68   2129.68    287.42       291.51
  218                       346.68    346.68   7885.72    191.75       194.48
  219                        18.00     38.16     18.00   1852.79        18.00
  220                         0.01     18.00      0.01   2436.19         0.01
  223                         0.01      0.01      0.01      2.93         0.01
  228                      2058.54   2129.68   2058.54   5231.47      2058.54
  229                      2063.28   2129.68   2063.28   5183.61      2063.28
  230                      1037.25   1037.25   7885.72    284.88       286.53
  231                      7885.71   7885.72   7885.71      0.91      3797.16
  232                         0.01      0.01      3.54      0.01         0.01
  233                         0.01      0.01     80.02      0.01         0.01
  234                         3.54      3.54      3.54      1.73         1.13
  235                         3.54      3.54    114.17      0.01         0.01
  236                         0.01      0.01    203.56      0.01         0.01
  237                        79.89     80.02     83.47   2699.78        69.36
  240                         0.01      0.01      0.01      0.22         0.01
  242                         0.01      0.01      0.01    695.53         0.01
  245                        24.52     24.52    170.42      0.01         0.01
  246                       170.42    170.42   4399.77      0.01         0.01
  247                       493.71    493.78    516.26   2282.97        15.05
  248                       493.78    493.78   2364.96      0.99         1.06
  249                       170.00    188.30    170.00   2175.44       170.00
  250                         0.01      0.01    170.00      0.01         0.01
  251                         0.01    169.99      0.01   3019.59         0.01
  255                         0.01      0.01    174.01      0.01         0.01
  265                       227.90    227.90   4399.48      0.01         0.01
  266                      2543.74   4399.77   2543.74   7886.38      2511.11
  267                      3236.35   4399.77   3236.35   7886.74      3236.35
  282                       134.11    172.97    134.29   3799.06       130.72
  283                         0.01      0.01    134.24      0.01         0.01
  284                         0.01    134.32      0.01   3805.38         0.01
  286                      1968.50   2058.54   1968.50   5231.69      1968.50
  287                      1968.51   1968.51   2063.28   5273.19         0.01
  288                      1470.76   1968.47   1470.76   6069.00      1470.76
  289                      1284.07   1470.38   1284.07   5246.73      1284.07
  290                      1280.29   1470.38   1280.29   5258.34      1280.29
  296                         0.01      0.01   6947.47      0.01         0.01
  297                         0.01      0.01      0.01    409.42         0.01
  299                      1031.64   1284.07   1031.64   5271.00      1031.64
  300                      1031.62   1031.62   1280.27   5258.30         0.01
  301                       675.62   1031.63    675.62   5256.60       675.62
  302                       670.07   1031.63    670.07   5272.10       670.07
  303                         0.01      0.01     65.39      0.01         0.01
  304                         0.01      0.01      0.01     32.82         0.01
  308                         0.01      0.01      0.01    405.17         0.01
  309                         0.01      0.01      0.01    650.76         0.01
  311                       270.85    675.63    270.85   5278.56       270.85
  312                       270.85    270.85    670.08   5272.07         0.01
  313                       270.85    270.85   1316.92      0.01         0.01
  314                         0.01      0.01     31.76      0.01         0.01
  319                       399.82   1316.92    399.82   5945.14       399.82
  320                       516.26    516.26   2202.14      0.01         0.01
  321                       227.16    227.90    241.79      0.94         0.51
  322                         0.01      0.01      0.01    172.71         0.01
  323                       399.82    399.82   2202.14      0.01         0.01
  324                      1547.38   2202.14   1547.39   6452.90      1546.61
  325                      1451.07   2364.96   1451.07   7886.45      1450.14
  326                      2364.96   2364.96   2543.73   7848.98       358.17
  327                       241.79    241.79   3236.35      0.01         0.01
  328                       241.49    241.80    251.72      0.48         0.01
  329                        27.77     27.77    241.80      0.01         0.01
  331                         0.01      0.01     45.76      0.01         0.01
  332                         0.01      0.01     93.06      0.01         0.01
  333                         0.01      0.01   6606.80      0.01         0.01
  334                       399.82    399.82   1037.25      0.01         0.01
  335                         0.01      0.01     27.77      0.01         0.01
  336                         0.01      0.01     33.47      0.01         0.01
  337                        48.82     65.39     48.82   2232.49        48.82
  338                         0.01      0.01     48.83      0.01         0.01
  339                         0.01     48.83      0.01   2240.07         0.01
  340                         0.01      0.01     31.76      0.01         0.01
  341                         0.01     31.76      0.01   2403.94         0.01
  343                         0.01      0.01   7710.09      0.01         0.01
  345                      1037.24   1037.24   1142.01   7884.16         0.01
  346                      1450.76   1451.07   1547.39   7515.73        16.88
  347                      1131.27   1451.07   1131.27   7886.44      1131.27
  348                       927.47    927.50    927.51    565.51       391.93
  349                      2746.74   3236.35   2746.74   7884.54      2686.17
  350                      2675.46   3236.35   2675.46   7886.65      2675.46
  351                      1142.01   1547.39   1142.01   7886.35      1142.01
  352                      1131.24   1142.01   1131.27   7805.53       424.50
  353                      1131.26   1131.26   7886.26     45.72        52.75
  354                      1131.27   1131.27   2542.73   7886.15        33.11
  355                      2542.73   2542.73   2746.74   7852.94       721.73
  356                      1329.44   1329.44   7886.26      0.01         0.01
  357                      7886.25   7886.26   7886.25   7886.39      7886.25
  358                      2675.46   2746.74   2675.46   7473.77      2651.12
  359                       673.37   2675.46    673.37   7886.57       673.37
  360                        45.76     45.76    251.72      0.01         0.01
  361                       251.71    251.71   1329.44      0.01         0.01
  362                         4.96     45.76      4.98      4.81         4.61
  363                         1.31      1.31     93.06      0.01         0.01
  364                        93.06     93.06   7054.28      0.01         0.01
  365                      6947.47   6947.47   7710.09      0.01         0.01
  366                         4.98    673.41      4.98   3027.29         4.98
  367                       673.41    673.41   1329.44      0.01         0.01
  368                        47.23     47.23   7885.71    457.16         0.01
  369                         0.01      0.01   7886.25   2700.04         0.01
  370                        18.66     18.66   6604.02     54.63         0.01
  

  Analysis begun on:  Tue Apr 14 23:40:10 2020
  Analysis ended on:  Wed Apr 15 00:00:43 2020
  Total elapsed time: 00:20:33