
  EPA STORM WATER MANAGEMENT MODEL - VERSION 5.1 (Build 5.1.013)
  --------------------------------------------------------------

  Template input file for Gottesacker karst system.  
  Based on input files created by Zhao Chen. 
  Modified by Chloe Fandel: 
  
  WARNING 08: elevation drop exceeds length for Conduit 2
  WARNING 04: minimum elevation drop used for Conduit 4
  WARNING 04: minimum elevation drop used for Conduit 11
  WARNING 04: minimum elevation drop used for Conduit 18
  WARNING 08: elevation drop exceeds length for Conduit 20
  
  *********************************************************
  NOTE: The summary statistics displayed in this report are
  based on results found at every computational time step,  
  not just on results from each reporting time step.
  *********************************************************
  
  ****************
  Analysis Options
  ****************
  Flow Units ............... LPS
  Process Models:
    Rainfall/Runoff ........ YES
    RDII ................... NO
    Snowmelt ............... NO
    Groundwater ............ NO
    Flow Routing ........... YES
    Ponding Allowed ........ NO
    Water Quality .......... NO
  Infiltration Method ...... HORTON
  Flow Routing Method ...... DYNWAVE
  Surcharge Method ......... EXTRAN
  Starting Date ............ 11/14/2013 00:00:00
  Ending Date .............. 10/11/2014 00:00:00
  Antecedent Dry Days ...... 0.0
  Report Time Step ......... 01:00:00
  Wet Time Step ............ 00:30:00
  Dry Time Step ............ 01:00:00
  Routing Time Step ........ 30.00 sec
  Variable Time Step ....... YES
  Maximum Trials ........... 8
  Number of Threads ........ 4
  Head Tolerance ........... 0.001524 m
  
  
  **************************        Volume         Depth
  Runoff Quantity Continuity     hectare-m            mm
  **************************     ---------       -------
  Total Precipitation ......      1918.244       705.626
  Evaporation Loss .........         0.000         0.000
  Infiltration Loss ........         0.000         0.000
  Surface Runoff ...........      1915.103       704.470
  Final Storage ............         3.433         1.263
  Continuity Error (%) .....        -0.015
  
  
  **************************        Volume        Volume
  Flow Routing Continuity        hectare-m      10^6 ltr
  **************************     ---------     ---------
  Dry Weather Inflow .......         0.000         0.000
  Wet Weather Inflow .......      1915.100     19151.201
  Groundwater Inflow .......         0.000         0.000
  RDII Inflow ..............         0.000         0.000
  External Inflow ..........         1.151        11.513
  External Outflow .........      2481.022     24810.477
  Flooding Loss ............        13.032       130.320
  Evaporation Loss .........         0.000         0.000
  Exfiltration Loss ........         0.000         0.000
  Initial Stored Volume ....         0.000         0.000
  Final Stored Volume ......         0.205         2.046
  Continuity Error (%) .....       -30.163
  
  
  *************************
  Highest Continuity Errors
  *************************
  Node 9 (3.73%)
  
  
  ***************************
  Time-Step Critical Elements
  ***************************
  Link 24 (80.34%)
  Link 22 (2.06%)
  
  
  ********************************
  Highest Flow Instability Indexes
  ********************************
  Link 11 (127)
  Link 12 (121)
  Link 24 (16)
  Link 6 (10)
  Link 18 (6)
  
  
  *************************
  Routing Time Step Summary
  *************************
  Minimum Time Step           :     0.50 sec
  Average Time Step           :    18.34 sec
  Maximum Time Step           :    30.00 sec
  Percent in Steady State     :     0.30
  Average Iterations per Step :     4.58
  Percent Not Converging      :    33.31
  
  
  ***************************
  Subcatchment Runoff Summary
  ***************************
  
  ------------------------------------------------------------------------------------------------------------------------------
                            Total      Total      Total      Total     Imperv       Perv      Total       Total     Peak  Runoff
                           Precip      Runon       Evap      Infil     Runoff     Runoff     Runoff      Runoff   Runoff   Coeff
  Subcatchment                 mm         mm         mm         mm         mm         mm         mm    10^6 ltr      LPS
  ------------------------------------------------------------------------------------------------------------------------------
  S1                         0.00       0.00       0.00       0.00       0.00       0.00       0.00        0.00     0.00   0.000
  S2                         0.00       0.00       0.00       0.00       0.00       0.00       0.00        0.00     0.00   0.000
  S3                         0.00       0.00       0.00       0.00       0.00       0.00       0.00        0.00     0.00   0.000
  S4                         0.00       0.00       0.00       0.00       0.00       0.00       0.00        0.00     0.00   0.000
  S5                      1037.52       0.00       0.00       0.00    1038.15       0.00    1038.15       72.67    62.44   1.001
  S6                      1025.22       0.00       0.00       0.00    1025.31       0.00    1025.31      371.68   262.35   1.000
  S7                      1067.22       0.00       0.00       0.00    1067.44       0.00    1067.44      296.22   218.08   1.000
  S8                      1385.10       0.00       0.00       0.00    1385.52       0.00    1385.52      498.79   466.98   1.000
  S9                      1036.22       0.00       0.00       0.00    1036.14       0.00    1036.14      841.87   614.86   1.000
  S10                     1303.86       0.00       0.00       0.00    1304.83       0.00    1304.83      123.96   153.90   1.001
  S11                     1323.24       0.00       0.00       0.00    1324.30       0.00    1324.30      115.88   125.53   1.001
  S12                     1003.45       0.00       0.00       0.00    1004.05       0.00    1004.05       80.32    68.42   1.001
  S13                     1565.06       0.00       0.00       0.00    1565.91       0.00    1565.91      246.63   210.79   1.001
  S14                     1589.63       0.00       0.00       0.00    1590.24       0.00    1590.24      381.66   311.46   1.000
  S15                     1292.86       0.00       0.00       0.00    1293.18       0.00    1293.18      484.95   498.34   1.000
  S16                      770.39       0.00       0.00       0.00     770.36       0.00     770.36      381.33   362.19   1.000
  S17                        0.00       0.00       0.00       0.00       0.00       0.00       0.00        0.00     0.00   0.000
  S18                     1447.74       0.00       0.00       0.00    1447.95       0.00    1447.95      908.60   777.54   1.000
  S19                     1445.01       0.00       0.00       0.00    1445.95       0.00    1445.95      195.20   205.61   1.001
  S20                      848.36       0.00       0.00       0.00     846.43       0.00     846.43    13936.51  5208.68   0.998
  S21                     1369.60       0.00       0.00       0.00    1371.06       0.00    1371.06       82.26    92.06   1.001
  S22                       22.11       0.00       0.00       0.00      21.88       0.00      21.88       81.55    15.50   0.989
  S23                     1359.91       0.00       0.00       0.00    1361.72       0.00    1361.72       51.06    60.01   1.001
  S24                        0.00       0.00       0.00       0.00       0.00       0.00       0.00        0.00     0.00   0.000
  S25                        0.00       0.00       0.00       0.00       0.00       0.00       0.00        0.00     0.00   0.000
  
  
  ******************
  Node Depth Summary
  ******************
  
  ---------------------------------------------------------------------------------
                                 Average  Maximum  Maximum  Time of Max    Reported
                                   Depth    Depth      HGL   Occurrence   Max Depth
  Node                 Type       Meters   Meters   Meters  days hr:min      Meters
  ---------------------------------------------------------------------------------
  0                    JUNCTION     0.00     0.00  1872.50     0  00:00        0.00
  1                    JUNCTION     0.00     0.00  1735.00     0  00:00        0.00
  2                    JUNCTION     0.00     0.00  1762.50     0  00:00        0.00
  3                    JUNCTION     0.39   201.00  1633.50   227  13:39      149.01
  4                    JUNCTION     0.01     0.07  1955.07   259  03:03        0.07
  5                    JUNCTION     0.01     0.08  1927.58   259  03:00        0.08
  6                    JUNCTION     0.10     0.43  1817.93   259  03:12        0.42
  7                    JUNCTION     0.07     0.36  1762.86   262  21:01        0.36
  8                    JUNCTION     3.04    58.30  1683.30   227  10:51       56.84
  9                    JUNCTION     3.19    58.34  1683.34   262  21:15       56.61
  10                   JUNCTION     0.00     0.01  1707.51   227  19:00        0.01
  11                   JUNCTION     0.04     0.73  1680.73   227  19:01        0.73
  12                   JUNCTION     0.74   204.00  1581.50   227  13:28      204.00
  13                   JUNCTION     0.72   204.00  1581.50   227  13:28      204.00
  14                   JUNCTION     0.07     1.02  1681.02   262  21:21        0.37
  15                   JUNCTION     0.19   201.00  1743.50   259  03:46      120.69
  16                   JUNCTION     0.04   201.00  1771.00   262  21:14       93.19
  17                   JUNCTION     1.15   201.00  1633.50   262  21:22      164.37
  18                   JUNCTION     5.39   147.86  1277.86   237  07:00      147.85
  19                   JUNCTION    13.98   152.99  1255.49   237  07:00      152.98
  20                   JUNCTION    10.61   127.87  1230.37   237  07:00      127.87
  21                   JUNCTION    16.01    22.30  1042.30   237  07:00       22.30
  22                   OUTFALL      0.21     1.00  1121.00   168  22:05        1.00
  23                   OUTFALL      0.36     0.74  1080.74   237  07:00        0.74
  24                   OUTFALL      0.20     0.57  1035.57   259  03:46        0.57
  
  
  *******************
  Node Inflow Summary
  *******************
  
  -------------------------------------------------------------------------------------------------
                                  Maximum  Maximum                  Lateral       Total        Flow
                                  Lateral    Total  Time of Max      Inflow      Inflow     Balance
                                   Inflow   Inflow   Occurrence      Volume      Volume       Error
  Node                 Type           LPS      LPS  days hr:min    10^6 ltr    10^6 ltr     Percent
  -------------------------------------------------------------------------------------------------
  0                    JUNCTION      0.00     0.00     0  00:00           0           0       0.000 ltr
  1                    JUNCTION      0.00     0.00     0  00:00           0           0       0.000 ltr
  2                    JUNCTION      0.00     0.00     0  00:00           0           0       0.000 ltr
  3                    JUNCTION      0.00  1032.28   227  13:38           0        1.01       0.000
  4                    JUNCTION     63.47    63.47   259  03:00        74.7        74.7      -0.087
  5                    JUNCTION    263.34   263.34   259  03:00         374         374       0.000
  6                    JUNCTION    219.04   544.84   259  03:00         298         747       0.006
  7                    JUNCTION    467.05   467.05   262  21:00         499         499       0.009
  8                    JUNCTION    615.26  8653.52   227  10:52         843    7.63e+03      -0.751
  9                    JUNCTION    154.39  9383.46   262  19:00         125    6.75e+03       3.879
  10                   JUNCTION    125.63   125.63   262  21:00         116         116       0.000
  11                   JUNCTION     69.13  7821.89   227  10:52        82.4     1.3e+03      -0.511
  12                   JUNCTION    210.79  4782.88   227  11:29         247         352      -0.104
  13                   JUNCTION    311.46  7637.85   227  19:01         382    1.74e+03       0.120
  14                   JUNCTION    498.34  2710.39   262  21:21         485         485      -0.001
  15                   JUNCTION    362.19253523.53   262  21:16         381         885       0.645
  16                   JUNCTION      0.00224555.32   262  21:16           0         5.4       0.000
  17                   JUNCTION    777.54  3006.17   262  21:22         909    8.99e+03       0.001
  18                   JUNCTION    205.61  2591.13   262  21:16         195    9.19e+03      -0.004
  19                   JUNCTION   5208.72  6777.47   237  07:00    1.39e+04     1.9e+04      -0.002
  20                   JUNCTION     92.06  1662.62   237  07:00        82.3    1.09e+04      -0.003
  21                   JUNCTION     15.50  1416.42   237  07:00        81.5     5.7e+03       0.881
  22                   OUTFALL      60.01  5187.03   237  07:00        51.1    8.24e+03       0.000
  23                   OUTFALL       0.00  1662.56   237  07:00           0    1.09e+04       0.000
  24                   OUTFALL       0.00  1423.97   259  03:46           0    5.65e+03       0.000
  
  
  **********************
  Node Surcharge Summary
  **********************
  
  Surcharging occurs when water rises above the top of the highest conduit.
  ---------------------------------------------------------------------
                                               Max. Height   Min. Depth
                                   Hours       Above Crown    Below Rim
  Node                 Type      Surcharged         Meters       Meters
  ---------------------------------------------------------------------
  3                    JUNCTION       11.47        200.000        0.000
  8                    JUNCTION      237.78         54.302        0.000
  9                    JUNCTION      239.34         54.342        0.000
  12                   JUNCTION       13.10        200.000        0.000
  13                   JUNCTION       13.10        200.000        0.000
  14                   JUNCTION        0.01          0.020        0.000
  15                   JUNCTION        4.98        200.000        0.000
  16                   JUNCTION        3.53        200.000        0.000
  17                   JUNCTION       68.85        200.000        0.000
  18                   JUNCTION      614.13        146.861        0.000
  19                   JUNCTION     4431.96        151.988        0.000
  20                   JUNCTION     3004.01        126.872        0.000
  21                   JUNCTION     7825.35         21.302        0.000
  
  
  *********************
  Node Flooding Summary
  *********************
  
  Flooding refers to all water that overflows a node, whether it ponds or not.
  --------------------------------------------------------------------------
                                                             Total   Maximum
                                 Maximum   Time of Max       Flood    Ponded
                        Hours       Rate    Occurrence      Volume     Depth
  Node                 Flooded       LPS   days hr:min    10^6 ltr    Meters
  --------------------------------------------------------------------------
  3                       0.01    106.83    227  13:39       0.001   200.000
  12                      9.27   1473.39    227  13:40       6.331   200.000
  13                      9.27   6121.67    227  19:02     115.492   200.000
  15                      0.04 196394.04    262  21:15       7.862   200.000
  16                      0.01  34388.41    262  21:21       0.616   200.000
  17                      0.01    210.52    262  21:22       0.002   200.000
  
  
  ***********************
  Outfall Loading Summary
  ***********************
  
  -----------------------------------------------------------
                         Flow       Avg       Max       Total
                         Freq      Flow      Flow      Volume
  Outfall Node           Pcnt       LPS       LPS    10^6 ltr
  -----------------------------------------------------------
  22                    84.44    559.12   5187.03    8239.661
  23                    99.52    486.90   1662.56   10924.073
  24                    97.37    303.89   1423.97    5646.923
  -----------------------------------------------------------
  System                93.78   1349.91   1423.97   24810.657
  
  
  ********************
  Link Flow Summary
  ********************
  
  -----------------------------------------------------------------------------
                                 Maximum  Time of Max   Maximum    Max/    Max/
                                  |Flow|   Occurrence   |Veloc|    Full    Full
  Link                 Type          LPS  days hr:min     m/sec    Flow   Depth
  -----------------------------------------------------------------------------
  0                    CONDUIT      0.00     0  00:00      0.00    0.00    0.00
  1                    CONDUIT      0.00     0  00:00      0.00    0.00    0.50
  2                    CONDUIT      0.00     0  00:00      0.00    0.00    0.00
  3                    CONDUIT   1032.28   227  13:38      1.39    1.75    1.00
  4                    CONDUIT   4646.26   227  11:29      1.19   11.28    1.00
  5                    CONDUIT     62.83   259  03:03      0.19    0.00    0.06
  6                    CONDUIT    263.28   259  03:00      0.79    0.00    0.06
  7                    CONDUIT    535.22   259  03:12      2.15    0.38    0.55
  8                    CONDUIT   7451.94   227  10:52      1.11    0.10    0.59
  9                    CONDUIT   7407.68   227  19:01      4.18    0.08    0.59
  10                   CONDUIT    465.01   262  21:01      0.82    0.27    0.68
  11                   CONDUIT   8393.39   227  10:52      0.67   27.26    1.00
  12                   CONDUIT   8871.84   262  19:00      4.18    0.00    0.50
  13                   CONDUIT   1425.04   227  11:55      1.93    1.21    1.00
  14                   CONDUIT   1500.47   262  21:22      1.91    1.49    1.00
  15                   CONDUIT   2405.25   262  21:16      3.06    1.05    1.00
  16                   CONDUIT   1584.41   227  13:28      2.02    1.20    1.00
  17                   CONDUIT   1187.87   262  21:22      1.51    1.54    1.00
  18                   CONDUIT   1618.02   237  07:00      2.06  285.10    1.00
  19                   CONDUIT   2254.08   262  21:21      3.16    1.34    1.00
  20                   CONDUIT 252327.95   262  21:16    >50.00   63.38    1.00
  21                   CONDUIT   1401.40   237  07:00      1.78    1.45    1.00
  22                   CONDUIT   5159.28   237  07:00      6.57    2.72    1.00
  23                   CONDUIT   1662.56   237  07:00      2.29    2.60    0.87
  24                   CONDUIT   1423.97   259  03:46      2.15    0.62    0.79
  
  
  ***************************
  Flow Classification Summary
  ***************************
  
  -------------------------------------------------------------------------------------
                      Adjusted    ---------- Fraction of Time in Flow Class ---------- 
                       /Actual         Up    Down  Sub   Sup   Up    Down  Norm  Inlet 
  Conduit               Length    Dry  Dry   Dry   Crit  Crit  Crit  Crit  Ltd   Ctrl  
  -------------------------------------------------------------------------------------
  0                       1.00   1.00  0.00  0.00  0.00  0.00  0.00  0.00  0.00  0.00
  1                       1.00   0.00  1.00  0.00  0.00  0.00  0.00  0.00  0.00  0.00
  2                       1.00   1.00  0.00  0.00  0.00  0.00  0.00  0.00  0.00  0.00
  3                       1.00   0.00  0.97  0.00  0.02  0.00  0.00  0.00  0.31  0.00
  4                       1.00   0.00  0.00  0.00  1.00  0.00  0.00  0.00  0.00  0.00
  5                       1.00   0.00  0.01  0.00  0.98  0.00  0.00  0.00  0.99  0.00
  6                       1.00   0.00  0.03  0.00  0.96  0.00  0.00  0.00  0.99  0.00
  7                       1.00   0.00  0.00  0.00  0.05  0.94  0.00  0.00  0.01  0.00
  8                       1.00   0.00  0.00  0.00  1.00  0.00  0.00  0.00  0.98  0.00
  9                       1.00   0.00  0.00  0.00  0.99  0.00  0.00  0.00  0.99  0.00
  10                      1.00   0.00  0.00  0.00  0.99  0.00  0.00  0.00  0.99  0.00
  11                      1.00   0.00  0.00  0.00  1.00  0.00  0.00  0.00  0.00  0.00
  12                      1.00   0.00  0.56  0.00  0.43  0.00  0.00  0.00  0.99  0.00
  13                      1.00   0.00  0.00  0.00  0.99  0.00  0.00  0.00  0.01  0.00
  14                      1.00   0.00  0.00  0.00  1.00  0.00  0.00  0.00  0.98  0.00
  15                      1.00   0.00  0.00  0.00  0.17  0.82  0.00  0.00  0.96  0.00
  16                      1.00   0.00  0.00  0.00  1.00  0.00  0.00  0.00  0.98  0.00
  17                      1.00   0.00  0.00  0.00  1.00  0.00  0.00  0.00  0.84  0.00
  18                      1.00   0.00  0.00  0.00  1.00  0.00  0.00  0.00  0.00  0.00
  19                      1.00   0.00  0.00  0.00  1.00  0.00  0.00  0.00  0.99  0.00
  20                      1.00   0.00  0.99  0.00  0.00  0.00  0.00  0.00  0.22  0.00
  21                      1.00   0.00  0.00  0.00  1.00  0.00  0.00  0.00  0.91  0.00
  22                      1.00   0.00  0.55  0.00  0.44  0.00  0.00  0.00  0.32  0.00
  23                      1.00   0.00  0.00  0.00  1.00  0.00  0.00  0.00  0.00  0.00
  24                      1.00   0.00  0.01  0.00  0.99  0.00  0.00  0.00  0.19  0.00
  
  
  *************************
  Conduit Surcharge Summary
  *************************
  
  ----------------------------------------------------------------------------
                                                           Hours        Hours 
                         --------- Hours Full --------   Above Full   Capacity
  Conduit                Both Ends  Upstream  Dnstream   Normal Flow   Limited
  ----------------------------------------------------------------------------
  3                          11.47     11.47     22.49      0.25         0.01
  4                          13.10     13.10     13.10     65.19         0.66
  8                           0.01      0.01    237.75      0.01         0.01
  9                           0.01      0.01     13.10      0.01         0.01
  10                          0.01      0.01    683.80      0.01         0.01
  11                        237.64    237.91    237.74   1772.49        60.74
  12                          0.01      0.01    237.92      0.01         0.01
  13                         68.83    576.44     68.83    197.31        40.08
  14                          4.97      4.97     68.85      0.06         0.05
  15                         68.84     68.84    614.12      1.31         1.70
  16                         92.58     92.58   4431.88     11.35        11.41
  17                        614.12    614.12   4431.88     98.77       100.82
  18                       3004.00   4431.88   3004.00   7597.44      3004.00
  19                          0.01      0.01      4.97      0.02         0.01
  20                          3.51      3.52     91.65      0.07         0.01
  21                        614.12    614.12   7825.35    297.25       315.35
  22                         91.71     91.71   5098.39    288.11         0.01
  23                          0.01   3003.96      0.01   2724.58         0.01
  24                          0.01      0.01   7823.39      0.01         0.01
  

  Analysis begun on:  Wed Apr 15 03:52:02 2020
  Analysis ended on:  Wed Apr 15 03:53:29 2020
  Total elapsed time: 00:01:27