
  EPA STORM WATER MANAGEMENT MODEL - VERSION 5.1 (Build 5.1.013)
  --------------------------------------------------------------

  Template input file for Gottesacker karst system.  
  Based on input files created by Zhao Chen. 
  Modified by Chloe Fandel: 
  
  WARNING 04: minimum elevation drop used for Conduit 4
  WARNING 04: minimum elevation drop used for Conduit 5
  WARNING 04: minimum elevation drop used for Conduit 6
  WARNING 08: elevation drop exceeds length for Conduit 8
  WARNING 04: minimum elevation drop used for Conduit 30
  WARNING 04: minimum elevation drop used for Conduit 32
  WARNING 04: minimum elevation drop used for Conduit 33
  WARNING 04: minimum elevation drop used for Conduit 36
  
  *********************************************************
  NOTE: The summary statistics displayed in this report are
  based on results found at every computational time step,  
  not just on results from each reporting time step.
  *********************************************************
  
  ****************
  Analysis Options
  ****************
  Flow Units ............... LPS
  Process Models:
    Rainfall/Runoff ........ YES
    RDII ................... NO
    Snowmelt ............... NO
    Groundwater ............ NO
    Flow Routing ........... YES
    Ponding Allowed ........ NO
    Water Quality .......... NO
  Infiltration Method ...... HORTON
  Flow Routing Method ...... DYNWAVE
  Surcharge Method ......... EXTRAN
  Starting Date ............ 11/14/2013 00:00:00
  Ending Date .............. 10/11/2014 00:00:00
  Antecedent Dry Days ...... 0.0
  Report Time Step ......... 01:00:00
  Wet Time Step ............ 00:30:00
  Dry Time Step ............ 01:00:00
  Routing Time Step ........ 30.00 sec
  Variable Time Step ....... YES
  Maximum Trials ........... 8
  Number of Threads ........ 4
  Head Tolerance ........... 0.001524 m
  
  
  **************************        Volume         Depth
  Runoff Quantity Continuity     hectare-m            mm
  **************************     ---------       -------
  Total Precipitation ......      2396.180       761.417
  Evaporation Loss .........         0.000         0.000
  Infiltration Loss ........         0.000         0.000
  Surface Runoff ...........      2393.338       760.514
  Final Storage ............         3.240         1.030
  Continuity Error (%) .....        -0.017
  
  
  **************************        Volume        Volume
  Flow Routing Continuity        hectare-m      10^6 ltr
  **************************     ---------     ---------
  Dry Weather Inflow .......         0.000         0.000
  Wet Weather Inflow .......      2393.339     23933.644
  Groundwater Inflow .......         0.000         0.000
  RDII Inflow ..............         0.000         0.000
  External Inflow ..........         8.803        88.028
  External Outflow .........      6596.152     65962.205
  Flooding Loss ............         0.000         0.000
  Evaporation Loss .........         0.000         0.000
  Exfiltration Loss ........         0.000         0.000
  Initial Stored Volume ....         0.000         0.000
  Final Stored Volume ......         1.945        19.452
  Continuity Error (%) .....      -174.676
  
  
  *************************
  Highest Continuity Errors
  *************************
  Node 11 (-164.13%)
  Node 35 (56.56%)
  Node 34 (2.04%)
  
  
  ***************************
  Time-Step Critical Elements
  ***************************
  Link 39 (5.62%)
  
  
  ********************************
  Highest Flow Instability Indexes
  ********************************
  Link 36 (89)
  Link 16 (88)
  Link 17 (80)
  Link 39 (77)
  Link 31 (62)
  
  
  *************************
  Routing Time Step Summary
  *************************
  Minimum Time Step           :     4.77 sec
  Average Time Step           :    29.70 sec
  Maximum Time Step           :    30.00 sec
  Percent in Steady State     :     0.30
  Average Iterations per Step :     5.32
  Percent Not Converging      :    48.04
  
  
  ***************************
  Subcatchment Runoff Summary
  ***************************
  
  ------------------------------------------------------------------------------------------------------------------------------
                            Total      Total      Total      Total     Imperv       Perv      Total       Total     Peak  Runoff
                           Precip      Runon       Evap      Infil     Runoff     Runoff     Runoff      Runoff   Runoff   Coeff
  Subcatchment                 mm         mm         mm         mm         mm         mm         mm    10^6 ltr      LPS
  ------------------------------------------------------------------------------------------------------------------------------
  S1                         0.00       0.00       0.00       0.00       0.00       0.00       0.00        0.00     0.00   0.000
  S2                         0.00       0.00       0.00       0.00       0.00       0.00       0.00        0.00     0.00   0.000
  S5                         0.00       0.00       0.00       0.00       0.00       0.00       0.00        0.00     0.00   0.000
  S6                         0.00       0.00       0.00       0.00       0.00       0.00       0.00        0.00     0.00   0.000
  S7                         0.00       0.00       0.00       0.00       0.00       0.00       0.00        0.00     0.00   0.000
  S8                         0.00       0.00       0.00       0.00       0.00       0.00       0.00        0.00     0.00   0.000
  S9                         0.00       0.00       0.00       0.00       0.00       0.00       0.00        0.00     0.00   0.000
  S10                        0.00       0.00       0.00       0.00       0.00       0.00       0.00        0.00     0.00   0.000
  S11                     1061.54       0.00       0.00       0.00    1061.69       0.00    1061.69      368.94   262.37   1.000
  S12                     1029.54       0.00       0.00       0.00    1030.00       0.00    1030.00      105.58    87.48   1.000
  S13                     1024.61       0.00       0.00       0.00    1024.82       0.00    1024.82      266.45   198.54   1.000
  S14                     1385.10       0.00       0.00       0.00    1385.52       0.00    1385.52      498.79   466.98   1.000
  S15                     1033.18       0.00       0.00       0.00    1033.25       0.00    1033.25      322.89   232.04   1.000
  S16                     1133.59       0.00       0.00       0.00    1133.83       0.00    1133.83      422.35   387.86   1.000
  S17                      984.28       0.00       0.00       0.00     984.37       0.00     984.37      433.13   350.20   1.000
  S18                      977.59       0.00       0.00       0.00     978.12       0.00     978.12       92.92    89.10   1.001
  S19                     1292.86       0.00       0.00       0.00    1293.18       0.00    1293.18      484.95   498.34   1.000
  S20                     1150.07       0.00       0.00       0.00    1149.95       0.00    1149.95     1129.83   806.26   1.000
  S21                      938.05       0.00       0.00       0.00     938.03       0.00     938.03      546.40   400.26   1.000
  S22                     1454.28       0.00       0.00       0.00    1454.49       0.00    1454.49      930.88   860.21   1.000
  S23                      770.39       0.00       0.00       0.00     770.36       0.00     770.36      381.33   362.19   1.000
  S24                        0.00       0.00       0.00       0.00       0.00       0.00       0.00        0.00     0.00   0.000
  S25                     1148.97       0.00       0.00       0.00    1149.08       0.00    1149.08      623.38   465.54   1.000
  S26                      117.59       0.00       0.00       0.00     117.38       0.00     117.38       85.98    35.47   0.998
  S27                        0.00       0.00       0.00       0.00       0.00       0.00       0.00        0.00     0.00   0.000
  S28                     1448.24       0.00       0.00       0.00    1448.37       0.00    1448.37     1086.28   895.81   1.000
  S29                     1111.13       0.00       0.00       0.00    1110.77       0.00    1110.77     1896.65  1119.61   1.000
  S30                        0.00       0.00       0.00       0.00       0.00       0.00       0.00        0.00     0.00   0.000
  S31                      921.61       0.00       0.00       0.00     919.72       0.00     919.72    13929.20  5384.29   0.998
  S32                     1362.10       0.00       0.00       0.00    1363.25       0.00    1363.25      132.92   143.90   1.001
  S33                        0.00       0.00       0.00       0.00       0.00       0.00       0.00        0.00     0.00   0.000
  S34                        0.00       0.00       0.00       0.00       0.00       0.00       0.00        0.00     0.00   0.000
  S35                        0.00       0.00       0.00       0.00       0.00       0.00       0.00        0.00     0.00   0.000
  S36                        0.00       0.00       0.00       0.00       0.00       0.00       0.00        0.00     0.00   0.000
  S37                     1365.11       0.00       0.00       0.00    1366.04       0.00    1366.04      194.66   201.10   1.001
  S38                        0.00       0.00       0.00       0.00       0.00       0.00       0.00        0.00     0.00   0.000
  S39                        0.00       0.00       0.00       0.00       0.00       0.00       0.00        0.00     0.00   0.000
  
  
  ******************
  Node Depth Summary
  ******************
  
  ---------------------------------------------------------------------------------
                                 Average  Maximum  Maximum  Time of Max    Reported
                                   Depth    Depth      HGL   Occurrence   Max Depth
  Node                 Type       Meters   Meters   Meters  days hr:min      Meters
  ---------------------------------------------------------------------------------
  0                    JUNCTION     0.00     0.00  1872.50     0  00:00        0.00
  1                    JUNCTION     0.00     0.00  1762.50     0  00:00        0.00
  2                    JUNCTION     0.00     0.00  1652.50     0  00:00        0.00
  3                    JUNCTION     0.00     0.00  1680.00     0  00:00        0.00
  4                    JUNCTION     0.00     0.00  1652.50     0  00:00        0.00
  5                    JUNCTION     0.00     0.00  1597.50     0  00:00        0.00
  6                    JUNCTION     0.00     0.00  1652.50     0  00:00        0.00
  7                    JUNCTION     0.00     0.00  1680.00     0  00:00        0.00
  8                    JUNCTION     0.00     0.00  1652.50     0  00:00        0.00
  9                    JUNCTION     0.00     0.00  1432.50     0  00:00        0.00
  10                   JUNCTION     0.02     0.14  1955.14   259  03:04        0.14
  11                   JUNCTION     0.28     1.49  1818.99   259  03:01        1.49
  12                   JUNCTION     0.00     0.04  1927.54   259  03:00        0.04
  13                   JUNCTION     0.03     0.19  1762.69   262  21:01        0.19
  14                   JUNCTION     0.02     0.14  1790.14   259  03:05        0.14
  15                   JUNCTION     0.02     0.16  1707.66   262  21:00        0.16
  16                   JUNCTION     0.05     0.33  1652.83   262  21:03        0.33
  17                   JUNCTION     0.23     1.25  1653.75   259  03:03        1.25
  18                   JUNCTION     0.02     0.18  1680.18   262  21:01        0.18
  19                   JUNCTION     0.05     0.29  1570.29   262  21:01        0.29
  20                   JUNCTION     0.23     1.22  1516.22   259  03:05        1.21
  21                   JUNCTION     0.07     0.42  1515.42   262  21:05        0.42
  22                   JUNCTION     0.03     0.25  1515.25   262  21:02        0.25
  23                   JUNCTION     0.00     0.00  1570.00     0  00:00        0.00
  24                   JUNCTION     0.26     1.42  1241.42   259  03:10        1.41
  25                   JUNCTION     0.04     0.29  1377.79   262  21:08        0.29
  26                   JUNCTION     0.00     0.00  1432.50     0  00:00        0.00
  27                   JUNCTION     0.08     0.47  1185.47   262  21:08        0.47
  28                   JUNCTION     0.27     1.95  1131.95   259  03:12        1.92
  29                   JUNCTION     0.37     1.97  1131.97   259  03:12        1.94
  30                   JUNCTION     0.87     9.09  1139.09   259  03:09        8.89
  31                   JUNCTION    23.73    36.58  1139.08   259  03:10       36.38
  32                   JUNCTION     0.03     0.26  1130.26   259  03:16        0.26
  33                   JUNCTION     5.11    12.64  1087.64   259  03:12       12.43
  34                   JUNCTION     5.09    11.67  1086.67   259  03:13       11.50
  35                   JUNCTION    10.23    15.38  1035.38   181  09:16       15.25
  36                   OUTFALL      0.40     0.66  1120.66   259  03:10        0.66
  37                   OUTFALL      0.30     2.45  1082.45   259  03:13        2.42
  38                   OUTFALL      0.01     0.76  1035.76   255  22:04        0.31
  
  
  *******************
  Node Inflow Summary
  *******************
  
  -------------------------------------------------------------------------------------------------
                                  Maximum  Maximum                  Lateral       Total        Flow
                                  Lateral    Total  Time of Max      Inflow      Inflow     Balance
                                   Inflow   Inflow   Occurrence      Volume      Volume       Error
  Node                 Type           LPS      LPS  days hr:min    10^6 ltr    10^6 ltr     Percent
  -------------------------------------------------------------------------------------------------
  0                    JUNCTION      0.00     0.00     0  00:00           0           0       0.000 ltr
  1                    JUNCTION      0.00     0.00     0  00:00           0           0       0.000 ltr
  2                    JUNCTION      0.00     0.00     0  00:00           0           0       0.000 ltr
  3                    JUNCTION      0.00     0.00     0  00:00           0           0       0.000 ltr
  4                    JUNCTION      0.00     0.00     0  00:00           0           0       0.000 ltr
  5                    JUNCTION      0.00     0.00     0  00:00           0           0       0.000 ltr
  6                    JUNCTION      0.00     0.00     0  00:00           0           0       0.000 ltr
  7                    JUNCTION      0.00     0.00     0  00:00           0           0       0.000 ltr
  8                    JUNCTION      0.00     0.00     0  00:00           0           0       0.000 ltr
  9                    JUNCTION      0.00     0.00     0  00:00           0           0       0.000 ltr
  10                   JUNCTION    263.34   263.34   259  03:00         371         371       0.016
  11                   JUNCTION     88.55 47032.43   312  00:00         108    1.67e+04     -62.140
  12                   JUNCTION    199.49   199.49   259  03:00         268         268       0.000
  13                   JUNCTION    467.05   467.05   262  21:00         499         499      -0.007
  14                   JUNCTION    233.12   233.12   259  03:00         325         325       0.000
  15                   JUNCTION    388.18   388.18   262  21:00         424         424       0.000
  16                   JUNCTION    350.65  1203.34   262  21:00         435    1.36e+03      -0.001
  17                   JUNCTION     89.60 28581.88   259  03:01        94.9    4.45e+04       0.469
  18                   JUNCTION    498.34   498.34   262  21:00         485         485      -0.006
  19                   JUNCTION    806.55   806.55   262  21:00    1.13e+03    1.13e+03       0.000
  20                   JUNCTION    400.74 28644.16   259  03:03         548    4.49e+04      -0.031
  21                   JUNCTION    860.21  2851.63   262  21:01         931    3.42e+03       0.002
  22                   JUNCTION    362.19   858.70   262  21:00         381         866      -0.003
  23                   JUNCTION      0.00     0.00     0  00:00           0           0       0.000 ltr
  24                   JUNCTION    465.82 29020.47   259  03:06         624    4.55e+04      -0.001
  25                   JUNCTION     35.47   880.14   262  21:03          86         952       0.009
  26                   JUNCTION      0.00     0.00     0  00:00           0           0       0.000 ltr
  27                   JUNCTION    895.81  4588.70   262  21:04    1.09e+03    5.46e+03       0.001
  28                   JUNCTION   1120.04 34799.30   259  03:11     1.9e+03    4.83e+04       0.000
  29                   JUNCTION      0.00  4578.43   262  21:08           0     5.5e+03       0.001
  30                   JUNCTION   5384.34 33393.22   259  03:10    1.39e+04    5.95e+04       0.002
  31                   JUNCTION    143.90  1329.75   259  03:10         133    1.65e+04       0.045
  32                   JUNCTION      0.00  2182.89   259  03:13           0    2.16e+03       0.004
  33                   JUNCTION      0.00 96403.00    28  04:08           0    4.99e+04      -0.338
  34                   JUNCTION      0.00251681.52    41  06:05           0       5e+04       2.081
  35                   JUNCTION      0.00  1060.97   148  21:41           0         684     130.180
  36                   OUTFALL     201.10  1517.53   259  03:05         195    1.67e+04       0.000
  37                   OUTFALL       0.00 36337.09   259  03:13           0     4.9e+04       0.000
  38                   OUTFALL       0.00 11455.83   255  22:04           0         359       0.000
  
  
  **********************
  Node Surcharge Summary
  **********************
  
  Surcharging occurs when water rises above the top of the highest conduit.
  ---------------------------------------------------------------------
                                               Max. Height   Min. Depth
                                   Hours       Above Crown    Below Rim
  Node                 Type      Surcharged         Meters       Meters
  ---------------------------------------------------------------------
  30                   JUNCTION       91.69          5.087        0.000
  31                   JUNCTION     7878.50         32.579        0.000
  33                   JUNCTION     6954.13          8.641        0.000
  34                   JUNCTION     6954.14          7.668        0.000
  35                   JUNCTION     5155.42         11.378        0.000
  
  
  *********************
  Node Flooding Summary
  *********************
  
  No nodes were flooded.
  
  
  ***********************
  Outfall Loading Summary
  ***********************
  
  -----------------------------------------------------------
                         Flow       Avg       Max       Total
                         Freq      Flow      Flow      Volume
  Outfall Node           Pcnt       LPS       LPS    10^6 ltr
  -----------------------------------------------------------
  36                    99.17    591.74   1517.53   16667.765
  37                    87.62   2082.66  36337.09   49004.044
  38                    64.37     19.72  11455.83     359.165
  -----------------------------------------------------------
  System                83.72   2694.11  11455.83   66030.974
  
  
  ********************
  Link Flow Summary
  ********************
  
  -----------------------------------------------------------------------------
                                 Maximum  Time of Max   Maximum    Max/    Max/
                                  |Flow|   Occurrence   |Veloc|    Full    Full
  Link                 Type          LPS  days hr:min     m/sec    Flow   Depth
  -----------------------------------------------------------------------------
  0                    CONDUIT      0.00     0  00:00      0.00    0.00    0.00
  1                    CONDUIT      0.00     0  00:00      0.00    0.00    0.00
  2                    CONDUIT      0.00     0  00:00      0.00    0.00    0.00
  3                    CONDUIT      0.00     0  00:00      0.00    0.00    0.00
  4                    CONDUIT      0.00     0  00:00      0.00    0.00    0.00
  5                    CONDUIT      0.00     0  00:00      0.00    0.00    0.00
  6                    CONDUIT      0.00     0  00:00      0.00    0.00    0.00
  7                    CONDUIT      0.00     0  00:00      0.00    0.00    0.00
  8                    CONDUIT      0.00     0  00:00      0.00    0.00    0.00
  9                    CONDUIT      0.00     0  00:00      0.00    0.00    0.00
  10                   CONDUIT      0.00     0  00:00      0.00    0.00    0.15
  11                   CONDUIT  28284.42   259  03:03      8.57    0.22    0.31
  12                   CONDUIT  28578.44   259  03:06     26.49    0.21    0.33
  13                   CONDUIT      0.00     0  00:00      0.00    0.00    0.18
  14                   CONDUIT  28880.95   259  03:10      9.38    0.28    0.68
  15                   CONDUIT    261.77   259  03:04      0.14    0.00    0.22
  16                   CONDUIT  28272.47   259  03:01      6.95    0.33    0.36
  17                   CONDUIT  46775.93   312  00:00     35.76    0.00    0.20
  18                   CONDUIT    231.38   259  03:05      0.16    0.00    0.17
  19                   CONDUIT    465.45   262  21:01      1.31    0.00    0.07
  20                   CONDUIT    387.86   262  21:00      1.22    0.00    0.06
  21                   CONDUIT   1194.05   262  21:04      2.00    0.01    0.09
  22                   CONDUIT    803.72   262  21:02      1.47    0.01    0.09
  23                   CONDUIT   2836.54   262  21:05      3.69    0.02    0.11
  24                   CONDUIT    496.97   262  21:01      1.87    0.00    0.05
  25                   CONDUIT    855.42   262  21:03      2.34    0.01    0.07
  26                   CONDUIT      0.00     0  00:00      0.00    0.00    0.03
  27                   CONDUIT    872.10   262  21:08      1.54    0.01    0.10
  28                   CONDUIT   4578.43   262  21:08      1.51    0.03    0.30
  29                   CONDUIT      0.00     0  00:00      0.00    0.00    0.04
  30                   CONDUIT  32208.30   259  03:10      3.22  139.10    0.74
  31                   CONDUIT   1194.65   259  03:12      4.20    0.02    1.00
  32                   CONDUIT   2720.13   262  21:19      0.50    7.65    0.49
  33                   CONDUIT   2182.89   259  03:13      0.76   12.78    0.28
  34                   CONDUIT  34790.71   259  03:12      3.47    0.50    0.74
  35                   CONDUIT   1553.59   259  03:16      0.23    0.01    0.53
  36                   CONDUIT 251681.52    41  06:05     20.03  408.75    1.00
  37                   CONDUIT    625.53   259  03:16      0.09    0.01    0.53
  38                   CONDUIT   1323.83   259  03:10      1.90    1.03    0.83
  39                   CONDUIT  36337.09   259  03:13      3.35    0.90    0.81
  40                   CONDUIT  11455.83   255  22:04      1.82    0.08    0.63
  
  
  ***************************
  Flow Classification Summary
  ***************************
  
  -------------------------------------------------------------------------------------
                      Adjusted    ---------- Fraction of Time in Flow Class ---------- 
                       /Actual         Up    Down  Sub   Sup   Up    Down  Norm  Inlet 
  Conduit               Length    Dry  Dry   Dry   Crit  Crit  Crit  Crit  Ltd   Ctrl  
  -------------------------------------------------------------------------------------
  0                       1.00   1.00  0.00  0.00  0.00  0.00  0.00  0.00  0.00  0.00
  1                       1.00   1.00  0.00  0.00  0.00  0.00  0.00  0.00  0.00  0.00
  2                       1.00   1.00  0.00  0.00  0.00  0.00  0.00  0.00  0.00  0.00
  3                       1.00   1.00  0.00  0.00  0.00  0.00  0.00  0.00  0.00  0.00
  4                       1.00   1.00  0.00  0.00  0.00  0.00  0.00  0.00  0.00  0.00
  5                       1.00   1.00  0.00  0.00  0.00  0.00  0.00  0.00  0.00  0.00
  6                       1.00   1.00  0.00  0.00  0.00  0.00  0.00  0.00  0.00  0.00
  7                       1.00   1.00  0.00  0.00  0.00  0.00  0.00  0.00  0.00  0.00
  8                       1.00   1.00  0.00  0.00  0.00  0.00  0.00  0.00  0.00  0.00
  9                       1.00   1.00  0.00  0.00  0.00  0.00  0.00  0.00  0.00  0.00
  10                      1.00   0.00  0.99  0.00  0.00  0.00  0.00  0.00  0.00  0.00
  11                      1.00   0.00  0.00  0.00  0.00  0.99  0.00  0.00  0.00  0.00
  12                      1.00   0.00  0.00  0.00  0.00  0.99  0.00  0.00  0.99  0.00
  13                      1.00   0.00  0.99  0.00  0.00  0.00  0.00  0.00  0.00  0.00
  14                      1.00   0.00  0.00  0.00  0.53  0.47  0.00  0.00  0.99  0.00
  15                      1.00   0.00  0.00  0.00  0.99  0.00  0.00  0.00  0.99  0.00
  16                      1.00   0.00  0.00  0.00  0.00  0.99  0.00  0.00  0.09  0.00
  17                      1.00   0.00  0.70  0.00  0.29  0.00  0.00  0.00  0.99  0.00
  18                      1.00   0.00  0.00  0.00  0.99  0.00  0.00  0.00  0.99  0.00
  19                      1.00   0.00  0.01  0.00  0.99  0.00  0.00  0.00  0.99  0.00
  20                      1.00   0.00  0.04  0.00  0.95  0.00  0.00  0.00  0.99  0.00
  21                      1.00   0.00  0.00  0.00  0.80  0.20  0.00  0.00  0.99  0.00
  22                      1.00   0.00  0.00  0.00  0.99  0.00  0.00  0.00  0.99  0.00
  23                      1.00   0.00  0.00  0.00  0.13  0.86  0.00  0.00  0.99  0.00
  24                      1.00   0.00  0.01  0.00  0.65  0.33  0.00  0.00  0.98  0.00
  25                      1.00   0.00  0.00  0.00  0.53  0.46  0.00  0.00  0.98  0.00
  26                      1.00   0.01  0.99  0.00  0.00  0.00  0.00  0.00  0.00  0.00
  27                      1.00   0.00  0.00  0.00  0.98  0.01  0.00  0.00  0.98  0.00
  28                      1.00   0.00  0.00  0.00  0.99  0.00  0.00  0.00  0.99  0.00
  29                      1.00   0.00  0.99  0.00  0.00  0.00  0.00  0.00  0.00  0.00
  30                      1.00   0.00  0.00  0.00  0.99  0.00  0.00  0.00  0.00  0.00
  31                      1.00   0.00  0.00  0.00  0.99  0.00  0.00  0.00  0.56  0.00
  32                      1.00   0.00  0.00  0.00  0.99  0.00  0.00  0.00  0.00  0.00
  33                      1.00   0.00  0.00  0.00  0.99  0.00  0.00  0.00  0.00  0.00
  34                      1.00   0.00  0.00  0.00  0.99  0.00  0.00  0.00  0.99  0.00
  35                      1.00   0.00  0.00  0.00  0.99  0.00  0.00  0.00  0.99  0.00
  36                      1.00   0.00  0.00  0.00  0.99  0.00  0.00  0.00  0.00  0.00
  37                      1.00   0.00  0.00  0.00  0.99  0.00  0.00  0.00  0.99  0.00
  38                      1.00   0.00  0.00  0.00  0.99  0.00  0.00  0.00  0.00  0.00
  39                      1.00   0.00  0.12  0.00  0.88  0.00  0.00  0.00  0.30  0.00
  40                      1.00   0.00  0.35  0.00  0.64  0.00  0.00  0.00  0.43  0.00
  
  
  *************************
  Conduit Surcharge Summary
  *************************
  
  ----------------------------------------------------------------------------
                                                           Hours        Hours 
                         --------- Hours Full --------   Above Full   Capacity
  Conduit                Both Ends  Upstream  Dnstream   Normal Flow   Limited
  ----------------------------------------------------------------------------
  14                          0.01      0.01     91.69      0.01         0.01
  30                          0.01     91.69      0.01   3087.28         0.01
  31                         91.69     91.69   7878.50      0.01         0.01
  32                          0.01      0.01      0.01    788.95         0.01
  33                          0.01      0.01      0.01    971.18         0.01
  34                          0.01      0.01   6954.13      0.01         0.01
  35                          0.01      0.01   6954.13      0.01         0.01
  36                       6954.09   6954.13   6954.12   2904.66      3794.24
  37                          0.01      0.01   5155.42      0.01         0.01
  38                          0.01      0.01   7877.96      1.22         0.01
  39                          0.01      0.01   6953.99      0.01         0.01
  40                          0.01      0.01   5095.00      0.01         0.01
  

  Analysis begun on:  Tue Apr 14 21:19:52 2020
  Analysis ended on:  Tue Apr 14 21:21:20 2020
  Total elapsed time: 00:01:28