
  EPA STORM WATER MANAGEMENT MODEL - VERSION 5.1 (Build 5.1.013)
  --------------------------------------------------------------

  Template input file for Gottesacker karst system.  
  Based on input files created by Zhao Chen. 
  Modified by Chloe Fandel: 
  
  WARNING 08: elevation drop exceeds length for Conduit 2
  WARNING 04: minimum elevation drop used for Conduit 4
  WARNING 04: minimum elevation drop used for Conduit 11
  WARNING 04: minimum elevation drop used for Conduit 18
  WARNING 08: elevation drop exceeds length for Conduit 20
  
  *********************************************************
  NOTE: The summary statistics displayed in this report are
  based on results found at every computational time step,  
  not just on results from each reporting time step.
  *********************************************************
  
  ****************
  Analysis Options
  ****************
  Flow Units ............... LPS
  Process Models:
    Rainfall/Runoff ........ YES
    RDII ................... NO
    Snowmelt ............... NO
    Groundwater ............ NO
    Flow Routing ........... YES
    Ponding Allowed ........ NO
    Water Quality .......... NO
  Infiltration Method ...... HORTON
  Flow Routing Method ...... DYNWAVE
  Surcharge Method ......... EXTRAN
  Starting Date ............ 11/14/2013 00:00:00
  Ending Date .............. 10/11/2014 00:00:00
  Antecedent Dry Days ...... 0.0
  Report Time Step ......... 01:00:00
  Wet Time Step ............ 00:30:00
  Dry Time Step ............ 01:00:00
  Routing Time Step ........ 30.00 sec
  Variable Time Step ....... YES
  Maximum Trials ........... 8
  Number of Threads ........ 4
  Head Tolerance ........... 0.001524 m
  
  
  **************************        Volume         Depth
  Runoff Quantity Continuity     hectare-m            mm
  **************************     ---------       -------
  Total Precipitation ......      1918.244       705.626
  Evaporation Loss .........         0.000         0.000
  Infiltration Loss ........         0.000         0.000
  Surface Runoff ...........      1915.103       704.470
  Final Storage ............         3.433         1.263
  Continuity Error (%) .....        -0.015
  
  
  **************************        Volume        Volume
  Flow Routing Continuity        hectare-m      10^6 ltr
  **************************     ---------     ---------
  Dry Weather Inflow .......         0.000         0.000
  Wet Weather Inflow .......      1915.092     19151.121
  Groundwater Inflow .......         0.000         0.000
  RDII Inflow ..............         0.000         0.000
  External Inflow ..........         1.165        11.650
  External Outflow .........      2521.866     25218.921
  Flooding Loss ............        33.414       334.148
  Evaporation Loss .........         0.000         0.000
  Exfiltration Loss ........         0.000         0.000
  Initial Stored Volume ....         0.000         0.000
  Final Stored Volume ......         0.211         2.109
  Continuity Error (%) .....       -33.358
  
  
  *************************
  Highest Continuity Errors
  *************************
  Node 9 (-13.39%)
  
  
  ***************************
  Time-Step Critical Elements
  ***************************
  Link 24 (80.39%)
  Link 22 (2.33%)
  
  
  ********************************
  Highest Flow Instability Indexes
  ********************************
  Link 11 (116)
  Link 12 (111)
  Link 6 (30)
  Link 24 (14)
  Link 7 (5)
  
  
  *************************
  Routing Time Step Summary
  *************************
  Minimum Time Step           :     0.22 sec
  Average Time Step           :    18.10 sec
  Maximum Time Step           :    30.00 sec
  Percent in Steady State     :     0.30
  Average Iterations per Step :     4.20
  Percent Not Converging      :    27.03
  
  
  ***************************
  Subcatchment Runoff Summary
  ***************************
  
  ------------------------------------------------------------------------------------------------------------------------------
                            Total      Total      Total      Total     Imperv       Perv      Total       Total     Peak  Runoff
                           Precip      Runon       Evap      Infil     Runoff     Runoff     Runoff      Runoff   Runoff   Coeff
  Subcatchment                 mm         mm         mm         mm         mm         mm         mm    10^6 ltr      LPS
  ------------------------------------------------------------------------------------------------------------------------------
  S1                         0.00       0.00       0.00       0.00       0.00       0.00       0.00        0.00     0.00   0.000
  S2                         0.00       0.00       0.00       0.00       0.00       0.00       0.00        0.00     0.00   0.000
  S3                         0.00       0.00       0.00       0.00       0.00       0.00       0.00        0.00     0.00   0.000
  S4                         0.00       0.00       0.00       0.00       0.00       0.00       0.00        0.00     0.00   0.000
  S5                      1037.52       0.00       0.00       0.00    1038.15       0.00    1038.15       72.67    62.44   1.001
  S6                      1025.22       0.00       0.00       0.00    1025.31       0.00    1025.31      371.68   262.35   1.000
  S7                      1067.22       0.00       0.00       0.00    1067.44       0.00    1067.44      296.22   218.08   1.000
  S8                      1385.10       0.00       0.00       0.00    1385.52       0.00    1385.52      498.79   466.98   1.000
  S9                      1036.22       0.00       0.00       0.00    1036.14       0.00    1036.14      841.87   614.86   1.000
  S10                     1303.86       0.00       0.00       0.00    1304.83       0.00    1304.83      123.96   153.90   1.001
  S11                     1323.24       0.00       0.00       0.00    1324.30       0.00    1324.30      115.88   125.53   1.001
  S12                     1003.45       0.00       0.00       0.00    1004.05       0.00    1004.05       80.32    68.42   1.001
  S13                     1565.06       0.00       0.00       0.00    1565.91       0.00    1565.91      246.63   210.79   1.001
  S14                     1589.63       0.00       0.00       0.00    1590.24       0.00    1590.24      381.66   311.46   1.000
  S15                     1292.86       0.00       0.00       0.00    1293.18       0.00    1293.18      484.95   498.34   1.000
  S16                      770.39       0.00       0.00       0.00     770.36       0.00     770.36      381.33   362.19   1.000
  S17                        0.00       0.00       0.00       0.00       0.00       0.00       0.00        0.00     0.00   0.000
  S18                     1447.74       0.00       0.00       0.00    1447.95       0.00    1447.95      908.60   777.54   1.000
  S19                     1445.01       0.00       0.00       0.00    1445.95       0.00    1445.95      195.20   205.61   1.001
  S20                      848.36       0.00       0.00       0.00     846.43       0.00     846.43    13936.51  5208.68   0.998
  S21                     1369.60       0.00       0.00       0.00    1371.06       0.00    1371.06       82.26    92.06   1.001
  S22                       22.11       0.00       0.00       0.00      21.88       0.00      21.88       81.55    15.50   0.989
  S23                     1359.91       0.00       0.00       0.00    1361.72       0.00    1361.72       51.06    60.01   1.001
  S24                        0.00       0.00       0.00       0.00       0.00       0.00       0.00        0.00     0.00   0.000
  S25                        0.00       0.00       0.00       0.00       0.00       0.00       0.00        0.00     0.00   0.000
  
  
  ******************
  Node Depth Summary
  ******************
  
  ---------------------------------------------------------------------------------
                                 Average  Maximum  Maximum  Time of Max    Reported
                                   Depth    Depth      HGL   Occurrence   Max Depth
  Node                 Type       Meters   Meters   Meters  days hr:min      Meters
  ---------------------------------------------------------------------------------
  0                    JUNCTION     0.00     0.00  1872.50     0  00:00        0.00
  1                    JUNCTION     0.00     0.00  1735.00     0  00:00        0.00
  2                    JUNCTION     0.00     0.00  1762.50     0  00:00        0.00
  3                    JUNCTION     1.30   149.75  1582.25   259  02:59      149.01
  4                    JUNCTION     0.01     0.07  1955.07   259  03:02        0.07
  5                    JUNCTION     0.01     0.08  1927.58   259  03:00        0.08
  6                    JUNCTION     0.05     0.22  1817.72   259  03:07        0.22
  7                    JUNCTION     0.03     0.19  1762.69   262  21:01        0.19
  8                    JUNCTION     3.67    59.52  1684.52   259  00:27       58.06
  9                    JUNCTION     3.80    59.59  1684.59   259  00:27       57.83
  10                   JUNCTION     0.00     0.01  1707.51   259  03:00        0.01
  11                   JUNCTION     0.04     0.87  1680.87   259  03:01        0.87
  12                   JUNCTION     2.26   204.00  1581.50   227  14:53      204.00
  13                   JUNCTION     2.24   204.00  1581.50   227  14:53      204.00
  14                   JUNCTION     0.03     0.19  1680.19   262  21:01        0.19
  15                   JUNCTION     0.12     0.93  1543.43   262  21:23        0.90
  16                   JUNCTION     0.00     0.00  1570.00     0  00:00        0.00
  17                   JUNCTION     0.14     0.37  1432.87   262  21:05        0.37
  18                   JUNCTION     4.09   172.51  1302.51   259  03:09      169.81
  19                   JUNCTION    14.10   174.59  1277.09   237  07:00      174.58
  20                   JUNCTION    10.70   146.14  1248.64   237  07:00      146.13
  21                   JUNCTION    16.06    22.82  1042.82   259  03:09       22.76
  22                   OUTFALL      0.21     1.00  1121.00   168  22:08        1.00
  23                   OUTFALL      0.36     0.77  1080.77   237  07:00        0.77
  24                   OUTFALL      0.20     0.58  1035.58   259  03:09        0.58
  
  
  *******************
  Node Inflow Summary
  *******************
  
  -------------------------------------------------------------------------------------------------
                                  Maximum  Maximum                  Lateral       Total        Flow
                                  Lateral    Total  Time of Max      Inflow      Inflow     Balance
                                   Inflow   Inflow   Occurrence      Volume      Volume       Error
  Node                 Type           LPS      LPS  days hr:min    10^6 ltr    10^6 ltr     Percent
  -------------------------------------------------------------------------------------------------
  0                    JUNCTION      0.00     0.00     0  00:00           0           0       0.000 ltr
  1                    JUNCTION      0.00     0.00     0  00:00           0           0       0.000 ltr
  2                    JUNCTION      0.00     0.00     0  00:00           0           0       0.000 ltr
  3                    JUNCTION      0.00  9737.02   259  02:52           0        48.4       0.000
  4                    JUNCTION     63.47    63.47   259  03:00        74.7        74.7      -0.057
  5                    JUNCTION    263.34   263.34   259  03:00         374         374       0.000
  6                    JUNCTION    219.04   545.00   259  03:00         298         748      -0.012
  7                    JUNCTION    467.05   467.05   262  21:00         499         499      -0.054
  8                    JUNCTION    615.26 11492.47   259  03:00         843    8.26e+03      -0.238
  9                    JUNCTION    154.39 10568.18   262  19:00         125     6.3e+03     -11.807
  10                   JUNCTION    125.63   125.63   262  21:00         116         116       0.000
  11                   JUNCTION     69.13 10719.47   259  03:00        82.4    1.84e+03      -0.599
  12                   JUNCTION    210.79  9780.00   259  02:52         247         567      -0.085
  13                   JUNCTION    311.46 10997.81   259  03:01         382    2.45e+03       0.117
  14                   JUNCTION    498.34   498.34   262  21:00         485         485      -0.025
  15                   JUNCTION    362.19   858.09   262  21:00         381         866       0.022
  16                   JUNCTION      0.00     0.00     0  00:00           0           0       0.000 ltr
  17                   JUNCTION    777.54  2673.75   262  21:00         909    9.05e+03      -0.012
  18                   JUNCTION    205.61  3026.18   262  19:52         195    9.27e+03       0.002
  19                   JUNCTION   5208.72  7280.59   237  07:00    1.39e+04    1.91e+04      -0.014
  20                   JUNCTION     92.06  1766.78   237  07:00        82.3     1.1e+04      -0.002
  21                   JUNCTION     15.50  1485.97   259  03:09        81.5    6.04e+03       0.792
  22                   OUTFALL      60.01  5586.04   237  07:00        51.1    8.22e+03       0.000
  23                   OUTFALL       0.00  1766.69   237  07:00           0     1.1e+04       0.000
  24                   OUTFALL       0.00  1485.97   259  03:09           0       6e+03       0.000
  
  
  **********************
  Node Surcharge Summary
  **********************
  
  Surcharging occurs when water rises above the top of the highest conduit.
  ---------------------------------------------------------------------
                                               Max. Height   Min. Depth
                                   Hours       Above Crown    Below Rim
  Node                 Type      Surcharged         Meters       Meters
  ---------------------------------------------------------------------
  3                    JUNCTION       39.14        145.749        0.000
  8                    JUNCTION      279.54         55.523        0.000
  9                    JUNCTION      279.97         55.588        0.000
  12                   JUNCTION       58.41        200.000        0.000
  13                   JUNCTION       58.43        200.000        0.000
  18                   JUNCTION      342.29        168.509        0.000
  19                   JUNCTION     4450.14        173.595        0.000
  20                   JUNCTION     3048.52        145.142        0.000
  21                   JUNCTION     7825.37         21.816        0.000
  
  
  *********************
  Node Flooding Summary
  *********************
  
  Flooding refers to all water that overflows a node, whether it ponds or not.
  --------------------------------------------------------------------------
                                                             Total   Maximum
                                 Maximum   Time of Max       Flood    Ponded
                        Hours       Rate    Occurrence      Volume     Depth
  Node                 Flooded       LPS   days hr:min    10^6 ltr    Meters
  --------------------------------------------------------------------------
  12                     29.49   4860.40    259  02:59      20.072   200.000
  13                     29.28   8539.25    259  03:10     314.075   200.000
  
  
  ***********************
  Outfall Loading Summary
  ***********************
  
  -----------------------------------------------------------
                         Flow       Avg       Max       Total
                         Freq      Flow      Flow      Volume
  Outfall Node           Pcnt       LPS       LPS    10^6 ltr
  -----------------------------------------------------------
  22                    84.63    555.32   5586.04    8219.254
  23                    99.52    490.97   1766.69   11002.265
  24                    97.81    317.42   1485.97    5997.718
  -----------------------------------------------------------
  System                93.99   1363.71   1485.97   25219.236
  
  
  ********************
  Link Flow Summary
  ********************
  
  -----------------------------------------------------------------------------
                                 Maximum  Time of Max   Maximum    Max/    Max/
                                  |Flow|   Occurrence   |Veloc|    Full    Full
  Link                 Type          LPS  days hr:min     m/sec    Flow   Depth
  -----------------------------------------------------------------------------
  0                    CONDUIT      0.00     0  00:00      0.00    0.00    0.00
  1                    CONDUIT      0.00     0  00:00      0.00    0.00    0.50
  2                    CONDUIT      0.00     0  00:00      0.00    0.00    0.00
  3                    CONDUIT   9737.02   259  02:52      1.33    0.26    1.00
  4                    CONDUIT   9574.35   259  02:52      1.44   23.25    1.00
  5                    CONDUIT     62.92   259  03:02      0.44    0.00    0.04
  6                    CONDUIT    263.30   259  03:00      1.73    0.00    0.04
  7                    CONDUIT    539.53   259  03:07     19.20    0.01    0.14
  8                    CONDUIT  10115.92   259  03:00      1.44    0.14    0.61
  9                    CONDUIT  10687.59   259  03:01      4.43    0.11    0.61
  10                   CONDUIT    464.29   262  21:01      0.10    0.00    0.52
  11                   CONDUIT  10963.27   259  03:00      0.87   35.61    1.00
  12                   CONDUIT  10061.97   262  19:00      3.71    0.00    0.50
  13                   CONDUIT   1118.06   262  21:04      2.20    0.95    0.69
  14                   CONDUIT    794.84   262  21:22      1.50    0.79    0.65
  15                   CONDUIT   2667.15   262  21:05      2.01    0.02    0.55
  16                   CONDUIT   1562.34   227  17:00      1.99    1.19    1.00
  17                   CONDUIT   1406.12   262  21:04      1.79    1.82    1.00
  18                   CONDUIT   1722.18   237  07:00      2.19  303.46    1.00
  19                   CONDUIT    496.40   262  21:01      0.72    0.00    0.14
  20                   CONDUIT      0.00     0  00:00      0.00    0.00    0.47
  21                   CONDUIT   1471.44   259  03:09      1.87    1.52    1.00
  22                   CONDUIT   5558.28   237  07:00      7.08    2.93    1.00
  23                   CONDUIT   1766.69   237  07:00      2.41    2.76    0.88
  24                   CONDUIT   1485.97   259  03:09      2.23    0.65    0.79
  
  
  ***************************
  Flow Classification Summary
  ***************************
  
  -------------------------------------------------------------------------------------
                      Adjusted    ---------- Fraction of Time in Flow Class ---------- 
                       /Actual         Up    Down  Sub   Sup   Up    Down  Norm  Inlet 
  Conduit               Length    Dry  Dry   Dry   Crit  Crit  Crit  Crit  Ltd   Ctrl  
  -------------------------------------------------------------------------------------
  0                       1.00   1.00  0.00  0.00  0.00  0.00  0.00  0.00  0.00  0.00
  1                       1.00   0.00  1.00  0.00  0.00  0.00  0.00  0.00  0.00  0.00
  2                       1.00   1.00  0.00  0.00  0.00  0.00  0.00  0.00  0.00  0.00
  3                       1.00   0.00  0.96  0.00  0.03  0.00  0.00  0.00  0.31  0.00
  4                       1.00   0.00  0.00  0.00  1.00  0.00  0.00  0.00  0.00  0.00
  5                       1.00   0.00  0.01  0.00  0.98  0.00  0.00  0.00  0.99  0.00
  6                       1.00   0.00  0.10  0.00  0.29  0.61  0.00  0.00  0.75  0.00
  7                       1.00   0.00  0.00  0.00  0.24  0.75  0.00  0.00  0.03  0.00
  8                       1.00   0.00  0.00  0.00  1.00  0.00  0.00  0.00  0.97  0.00
  9                       1.00   0.00  0.00  0.00  0.99  0.00  0.00  0.00  0.99  0.00
  10                      1.00   0.00  0.00  0.00  0.99  0.00  0.00  0.00  0.99  0.00
  11                      1.00   0.00  0.00  0.00  1.00  0.00  0.00  0.00  0.00  0.00
  12                      1.00   0.00  0.59  0.00  0.41  0.00  0.00  0.00  0.99  0.00
  13                      1.00   0.00  0.00  0.00  0.19  0.80  0.00  0.00  0.00  0.00
  14                      1.00   0.00  0.00  0.00  0.99  0.00  0.00  0.00  0.88  0.00
  15                      1.00   0.00  0.00  0.00  0.80  0.20  0.00  0.00  0.99  0.00
  16                      1.00   0.00  0.00  0.00  1.00  0.00  0.00  0.00  0.97  0.00
  17                      1.00   0.00  0.00  0.00  1.00  0.00  0.00  0.00  0.83  0.00
  18                      1.00   0.00  0.00  0.00  1.00  0.00  0.00  0.00  0.00  0.00
  19                      1.00   0.00  0.00  0.00  1.00  0.00  0.00  0.00  0.99  0.00
  20                      1.00   0.00  1.00  0.00  0.00  0.00  0.00  0.00  0.00  0.00
  21                      1.00   0.00  0.00  0.00  1.00  0.00  0.00  0.00  0.91  0.00
  22                      1.00   0.00  0.55  0.00  0.45  0.00  0.00  0.00  0.32  0.00
  23                      1.00   0.00  0.00  0.00  1.00  0.00  0.00  0.00  0.00  0.00
  24                      1.00   0.00  0.01  0.00  0.99  0.00  0.00  0.00  0.19  0.00
  
  
  *************************
  Conduit Surcharge Summary
  *************************
  
  ----------------------------------------------------------------------------
                                                           Hours        Hours 
                         --------- Hours Full --------   Above Full   Capacity
  Conduit                Both Ends  Upstream  Dnstream   Normal Flow   Limited
  ----------------------------------------------------------------------------
  3                          39.14     39.14     58.02      0.01         0.01
  4                          58.40     58.41     58.43    133.20        10.29
  8                           0.01      0.01    279.51      0.01         0.01
  9                           0.01      0.01     58.43      0.01         0.01
  10                          0.01      0.01    279.75      0.01         0.01
  11                        279.44    279.74    279.50   1898.11        53.41
  12                          0.01      0.01    279.75      0.01         0.01
  13                          0.01    843.06      0.01      0.01         0.01
  15                          0.01      0.01    342.29      0.01         0.01
  16                        167.61    167.61   4450.06     37.23        37.37
  17                        642.93    642.93   4450.06     25.59        26.11
  18                       3048.51   4450.06   3048.51   7603.46      3048.51
  21                        642.93    642.93   7825.37    218.98       226.35
  22                         91.48     91.48   5098.48    279.66         0.01
  23                          0.01   3048.48      0.01   2764.36         0.01
  24                          0.01      0.01   7823.46      0.01         0.01
  

  Analysis begun on:  Wed Apr 15 03:46:03 2020
  Analysis ended on:  Wed Apr 15 03:47:26 2020
  Total elapsed time: 00:01:23