
  EPA STORM WATER MANAGEMENT MODEL - VERSION 5.1 (Build 5.1.013)
  --------------------------------------------------------------

  Template input file for Gottesacker karst system.  
  Based on input files created by Zhao Chen. 
  Modified by Chloe Fandel: 
  
  WARNING 04: minimum elevation drop used for Conduit 1
  WARNING 04: minimum elevation drop used for Conduit 4
  WARNING 04: minimum elevation drop used for Conduit 6
  WARNING 04: minimum elevation drop used for Conduit 11
  WARNING 04: minimum elevation drop used for Conduit 16
  WARNING 08: elevation drop exceeds length for Conduit 17
  WARNING 04: minimum elevation drop used for Conduit 22
  WARNING 04: minimum elevation drop used for Conduit 23
  WARNING 04: minimum elevation drop used for Conduit 27
  WARNING 04: minimum elevation drop used for Conduit 28
  WARNING 04: minimum elevation drop used for Conduit 29
  WARNING 04: minimum elevation drop used for Conduit 30
  WARNING 04: minimum elevation drop used for Conduit 31
  WARNING 04: minimum elevation drop used for Conduit 33
  
  *********************************************************
  NOTE: The summary statistics displayed in this report are
  based on results found at every computational time step,  
  not just on results from each reporting time step.
  *********************************************************
  
  ****************
  Analysis Options
  ****************
  Flow Units ............... LPS
  Process Models:
    Rainfall/Runoff ........ YES
    RDII ................... NO
    Snowmelt ............... NO
    Groundwater ............ NO
    Flow Routing ........... YES
    Ponding Allowed ........ NO
    Water Quality .......... NO
  Infiltration Method ...... HORTON
  Flow Routing Method ...... DYNWAVE
  Surcharge Method ......... EXTRAN
  Starting Date ............ 11/14/2013 00:00:00
  Ending Date .............. 10/11/2014 00:00:00
  Antecedent Dry Days ...... 0.0
  Report Time Step ......... 01:00:00
  Wet Time Step ............ 00:30:00
  Dry Time Step ............ 01:00:00
  Routing Time Step ........ 30.00 sec
  Variable Time Step ....... YES
  Maximum Trials ........... 8
  Number of Threads ........ 4
  Head Tolerance ........... 0.001524 m
  
  
  **************************        Volume         Depth
  Runoff Quantity Continuity     hectare-m            mm
  **************************     ---------       -------
  Total Precipitation ......      1826.492       684.785
  Evaporation Loss .........         0.000         0.000
  Infiltration Loss ........         0.000         0.000
  Surface Runoff ...........      1823.534       683.676
  Final Storage ............         3.229         1.211
  Continuity Error (%) .....        -0.015
  
  
  **************************        Volume        Volume
  Flow Routing Continuity        hectare-m      10^6 ltr
  **************************     ---------     ---------
  Dry Weather Inflow .......         0.000         0.000
  Wet Weather Inflow .......      1823.530     18235.489
  Groundwater Inflow .......         0.000         0.000
  RDII Inflow ..............         0.000         0.000
  External Inflow ..........         1.598        15.981
  External Outflow .........      7565.594     75656.728
  Flooding Loss ............         0.000         0.000
  Evaporation Loss .........         0.000         0.000
  Exfiltration Loss ........         0.000         0.000
  Initial Stored Volume ....         0.000         0.000
  Final Stored Volume ......         1.900        19.003
  Continuity Error (%) .....      -314.628
  
  
  *************************
  Highest Continuity Errors
  *************************
  Node 14 (-840.96%)
  Node 15 (-670.71%)
  Node 18 (-206.53%)
  Node 9 (-113.54%)
  Node 29 (10.62%)
  
  
  ***************************
  Time-Step Critical Elements
  ***************************
  Link 36 (74.77%)
  Link 29 (20.23%)
  Link 22 (4.69%)
  
  
  ********************************
  Highest Flow Instability Indexes
  ********************************
  Link 6 (109)
  Link 20 (108)
  Link 19 (107)
  Link 21 (104)
  Link 11 (87)
  
  
  *************************
  Routing Time Step Summary
  *************************
  Minimum Time Step           :     1.59 sec
  Average Time Step           :    12.06 sec
  Maximum Time Step           :    30.00 sec
  Percent in Steady State     :     0.30
  Average Iterations per Step :     7.83
  Percent Not Converging      :    97.18
  
  
  ***************************
  Subcatchment Runoff Summary
  ***************************
  
  ------------------------------------------------------------------------------------------------------------------------------
                            Total      Total      Total      Total     Imperv       Perv      Total       Total     Peak  Runoff
                           Precip      Runon       Evap      Infil     Runoff     Runoff     Runoff      Runoff   Runoff   Coeff
  Subcatchment                 mm         mm         mm         mm         mm         mm         mm    10^6 ltr      LPS
  ------------------------------------------------------------------------------------------------------------------------------
  S1                         0.00       0.00       0.00       0.00       0.00       0.00       0.00        0.00     0.00   0.000
  S2                         0.00       0.00       0.00       0.00       0.00       0.00       0.00        0.00     0.00   0.000
  S3                         0.00       0.00       0.00       0.00       0.00       0.00       0.00        0.00     0.00   0.000
  S4                         0.00       0.00       0.00       0.00       0.00       0.00       0.00        0.00     0.00   0.000
  S5                      1035.63       0.00       0.00       0.00    1036.39       0.00    1036.39       46.64    41.29   1.001
  S6                      1025.22       0.00       0.00       0.00    1025.31       0.00    1025.31      371.68   262.35   1.000
  S7                      1385.10       0.00       0.00       0.00    1385.52       0.00    1385.52      498.79   466.98   1.000
  S8                      1066.35       0.00       0.00       0.00    1066.54       0.00    1066.54      322.63   234.60   1.000
  S9                      1024.25       0.00       0.00       0.00    1024.72       0.00    1024.72      140.90   143.99   1.000
  S10                     1036.22       0.00       0.00       0.00    1036.14       0.00    1036.14      841.87   614.86   1.000
  S11                     1318.99       0.00       0.00       0.00    1319.66       0.00    1319.66      240.84   252.07   1.001
  S14                      977.59       0.00       0.00       0.00     978.15       0.00     978.15       85.59    82.93   1.001
  S15                     1577.49       0.00       0.00       0.00    1578.42       0.00    1578.42      213.09   185.05   1.001
  S16                     1589.63       0.00       0.00       0.00    1590.24       0.00    1590.24      381.66   311.46   1.000
  S17                     1012.33       0.00       0.00       0.00    1012.23       0.00    1012.23      607.34   388.44   1.000
  S18                        0.00       0.00       0.00       0.00       0.00       0.00       0.00        0.00     0.00   0.000
  S19                        0.00       0.00       0.00       0.00       0.00       0.00       0.00        0.00     0.00   0.000
  S20                     1292.86       0.00       0.00       0.00    1293.18       0.00    1293.18      484.95   498.34   1.000
  S21                      770.39       0.00       0.00       0.00     770.36       0.00     770.36      381.33   362.19   1.000
  S22                        0.00       0.00       0.00       0.00       0.00       0.00       0.00        0.00     0.00   0.000
  S24                      837.07       0.00       0.00       0.00     835.19       0.00     835.19    13202.38  4953.22   0.998
  S25                     1125.76       0.00       0.00       0.00    1126.24       0.00    1126.24      211.17   206.72   1.000
  S26                        0.00       0.00       0.00       0.00       0.00       0.00       0.00        0.00     0.00   0.000
  S28                        0.00       0.00       0.00       0.00       0.00       0.00       0.00        0.00     0.00   0.000
  S29                     1369.60       0.00       0.00       0.00    1371.15       0.00    1371.15       71.99    81.41   1.001
  S30                       22.11       0.00       0.00       0.00      21.88       0.00      21.88       81.55    15.50   0.989
  S31                     1359.91       0.00       0.00       0.00    1361.72       0.00    1361.72       51.06    60.01   1.001
  S32                        0.00       0.00       0.00       0.00       0.00       0.00       0.00        0.00     0.00   0.000
  S33                        0.00       0.00       0.00       0.00       0.00       0.00       0.00        0.00     0.00   0.000
  
  
  ******************
  Node Depth Summary
  ******************
  
  ---------------------------------------------------------------------------------
                                 Average  Maximum  Maximum  Time of Max    Reported
                                   Depth    Depth      HGL   Occurrence   Max Depth
  Node                 Type       Meters   Meters   Meters  days hr:min      Meters
  ---------------------------------------------------------------------------------
  0                    JUNCTION     0.00     0.00  1872.50     0  00:00        0.00
  1                    JUNCTION     0.00     0.00  1762.50     0  00:00        0.00
  2                    JUNCTION     0.00     0.00  1762.50     0  00:00        0.00
  3                    JUNCTION     0.00     0.00  1432.50     0  00:00        0.00
  4                    JUNCTION     0.01     0.06  1955.06   259  03:03        0.06
  5                    JUNCTION     0.02     0.12  1927.62   259  03:01        0.12
  6                    JUNCTION     0.03     0.19  1762.69   262  21:01        0.19
  7                    JUNCTION     0.05     0.22  1790.22   259  03:07        0.22
  8                    JUNCTION     0.52     1.66  1626.66   262  21:02        1.66
  9                    JUNCTION     0.70     2.29  1627.29   262  21:01        2.29
  10                   JUNCTION     0.00     0.02  1707.52   262  19:00        0.02
  11                   JUNCTION     0.24     0.97  1625.97   262  21:04        0.97
  12                   JUNCTION     0.01     0.06  1652.56   259  03:13        0.06
  13                   JUNCTION     0.04     0.19  1680.19   259  03:11        0.19
  14                   JUNCTION     0.75     6.69  1384.19     2  09:02        2.39
  15                   JUNCTION     0.01     0.07  1405.07   259  03:00        0.07
  16                   JUNCTION     0.24     0.93  1570.93   262  21:08        0.93
  17                   JUNCTION     0.47     1.56  1379.06     2  09:05        1.47
  18                   JUNCTION     0.00     0.04  1405.04   254  21:05        0.04
  19                   JUNCTION     0.03     0.18  1680.18   262  21:00        0.18
  20                   JUNCTION     0.05     0.27  1515.27   262  21:07        0.27
  21                   JUNCTION     0.00     0.00  1570.00     0  00:00        0.00
  22                   JUNCTION     0.81     2.46  1104.96   254  21:38        2.43
  23                   JUNCTION     1.23     3.81  1106.31   254  21:27        3.68
  24                   JUNCTION     1.17     3.60  1106.10   254  21:27        3.49
  25                   JUNCTION     0.92     2.73  1105.23   254  21:32        2.68
  26                   JUNCTION     0.62     2.16  1104.66   254  21:37        2.12
  27                   JUNCTION     1.18     3.68  1106.18   254  21:27        3.56
  28                   JUNCTION     1.15     3.68  1106.18   254  21:27        3.56
  29                   JUNCTION    15.43    17.95  1037.95   254  21:37       17.89
  30                   OUTFALL      0.00     0.00  1120.00     0  00:00        0.00
  31                   OUTFALL      0.37     0.43  1080.43   254  21:27        0.43
  32                   OUTFALL      0.33     1.22  1036.22   254  21:38        1.20
  
  
  *******************
  Node Inflow Summary
  *******************
  
  -------------------------------------------------------------------------------------------------
                                  Maximum  Maximum                  Lateral       Total        Flow
                                  Lateral    Total  Time of Max      Inflow      Inflow     Balance
                                   Inflow   Inflow   Occurrence      Volume      Volume       Error
  Node                 Type           LPS      LPS  days hr:min    10^6 ltr    10^6 ltr     Percent
  -------------------------------------------------------------------------------------------------
  0                    JUNCTION      0.00     0.00     0  00:00           0           0       0.000 ltr
  1                    JUNCTION      0.00     0.00     0  00:00           0           0       0.000 ltr
  2                    JUNCTION      0.00     0.00     0  00:00           0           0       0.000 ltr
  3                    JUNCTION      0.00     0.00     0  00:00           0           0       0.000 ltr
  4                    JUNCTION     42.38    42.38   259  03:00        48.7        48.7      -0.138
  5                    JUNCTION    263.34   263.34   259  03:00         374         374       0.000
  6                    JUNCTION    467.05   467.05   262  21:00         499         499       0.014
  7                    JUNCTION    235.56   539.75   259  03:00         325         747       0.008
  8                    JUNCTION    144.48  6439.76   262  21:01         143    1.03e+04      -0.020
  9                    JUNCTION    615.26  6697.08   221  18:00         843     4.7e+03     -53.169
  10                   JUNCTION    252.18   252.18   262  21:00         241         241       0.000
  11                   JUNCTION      0.00  6509.30   262  21:02           0    1.04e+04      -0.004
  12                   JUNCTION      0.00   155.77   259  03:12           0         206       0.002
  13                   JUNCTION     83.42   607.35   259  03:06        87.6         835      -0.002
  14                   JUNCTION    185.05 47029.69   254  21:06         213    3.15e+03     -89.373
  15                   JUNCTION    311.46   311.46   259  03:00         382         382     -87.025
  16                   JUNCTION    389.43  7180.62   262  21:04         609    1.16e+04       0.015
  17                   JUNCTION      0.00 53306.29     2  09:02           0    6.53e+04      -5.040
  18                   JUNCTION      0.00  7198.89   262  21:08           0    1.16e+04     -67.377
  19                   JUNCTION    498.34   498.34   262  21:00         485         485      -0.020
  20                   JUNCTION    362.19   858.70   262  21:00         381         866       0.043
  21                   JUNCTION      0.00     0.00     0  00:00           0           0       0.000 ltr
  22                   JUNCTION      0.00 12618.07   254  21:24           0    2.98e+04       0.003
  23                   JUNCTION   4953.26 42910.05     2  09:02    1.32e+04     8.2e+04      -0.039
  24                   JUNCTION    207.06 29243.30   254  21:26         212    7.11e+04       0.000
  25                   JUNCTION      0.00 29236.77   254  21:26           0    7.11e+04      -0.000
  26                   JUNCTION      0.00 28996.43   254  21:34           0    7.19e+04      -0.000
  27                   JUNCTION      0.00 11822.68   254  21:25           0    3.47e+04       0.000
  28                   JUNCTION     81.41  3846.93     2  09:11          72    1.12e+04       0.003
  29                   JUNCTION     15.50 28934.24   254  21:38        81.5     7.2e+04      11.883
  30                   OUTFALL      60.01    60.01   259  03:00        51.1        51.1       0.000
  31                   OUTFALL       0.00   584.46   254  21:27           0    1.12e+04       0.000
  32                   OUTFALL       0.00 28934.24   254  21:38           0    6.44e+04       0.000
  
  
  **********************
  Node Surcharge Summary
  **********************
  
  Surcharging occurs when water rises above the top of the highest conduit.
  ---------------------------------------------------------------------
                                               Max. Height   Min. Depth
                                   Hours       Above Crown    Below Rim
  Node                 Type      Surcharged         Meters       Meters
  ---------------------------------------------------------------------
  14                   JUNCTION        0.01          2.693        0.000
  29                   JUNCTION     7884.14         13.946        0.000
  
  
  *********************
  Node Flooding Summary
  *********************
  
  No nodes were flooded.
  
  
  ***********************
  Outfall Loading Summary
  ***********************
  
  -----------------------------------------------------------
                         Flow       Avg       Max       Total
                         Freq      Flow      Flow      Volume
  Outfall Node           Pcnt       LPS       LPS    10^6 ltr
  -----------------------------------------------------------
  30                    84.55      3.29     60.01      51.063
  31                    99.71    443.52    584.46   11245.669
  32                    99.68   3367.64  28934.24   64359.984
  -----------------------------------------------------------
  System                94.65   3814.45  28934.24   75656.716
  
  
  ********************
  Link Flow Summary
  ********************
  
  -----------------------------------------------------------------------------
                                 Maximum  Time of Max   Maximum    Max/    Max/
                                  |Flow|   Occurrence   |Veloc|    Full    Full
  Link                 Type          LPS  days hr:min     m/sec    Flow   Depth
  -----------------------------------------------------------------------------
  0                    CONDUIT      0.00     0  00:00      0.00    0.00    0.00
  1                    CONDUIT      0.00     0  00:00      0.00    0.00    0.00
  2                    CONDUIT      0.00     0  00:00      0.00    0.00    0.01
  3                    CONDUIT  46864.10   254  21:06     16.11    0.00    0.50
  4                    CONDUIT      0.93   254  21:04      0.06    0.00    0.01
  5                    CONDUIT      0.00     0  00:00      0.00    0.00    0.50
  6                    CONDUIT  53306.29     2  09:02      7.08   86.57    0.67
  7                    CONDUIT     41.75   259  03:04      0.35    0.00    0.03
  8                    CONDUIT    262.90   259  03:01      1.42    0.00    0.04
  9                    CONDUIT    535.50   259  03:08      2.19    0.01    0.05
  10                   CONDUIT    464.43   262  21:01      0.14    0.00    0.31
  11                   CONDUIT   6243.30   262  21:01      1.01   22.67    0.50
  12                   CONDUIT   6321.53   221  18:00      6.66    0.00    0.29
  13                   CONDUIT    155.77   259  03:12      1.37    0.00    0.03
  14                   CONDUIT    449.54   259  03:11      0.64    0.00    0.14
  15                   CONDUIT     66.31   259  03:13      0.07    0.00    0.21
  16                   CONDUIT   6437.90   262  21:02      3.27   10.46    0.33
  17                   CONDUIT     89.41   259  03:13      0.28    0.00    0.13
  18                   CONDUIT   6495.06   262  21:04      2.85    0.13    0.24
  19                   CONDUIT   7198.88   262  21:08     10.01    0.08    0.12
  20                   CONDUIT  30102.53   262  21:07     23.91    0.00    0.19
  21                   CONDUIT  42910.05     2  09:02     23.30    0.51    0.66
  22                   CONDUIT  17826.02   254  21:25      1.47   28.95    0.93
  23                   CONDUIT  11822.68   254  21:25      1.07   22.83    0.94
  24                   CONDUIT    496.88   262  21:00      1.82    0.00    0.06
  25                   CONDUIT    840.71   262  21:07      0.23    0.01    0.34
  26                   CONDUIT      0.00     0  00:00      0.00    0.00    0.03
  27                   CONDUIT  12169.27   254  21:24      1.46   23.50    0.65
  28                   CONDUIT  11975.76   254  21:38      1.59   19.45    0.58
  29                   CONDUIT  29236.77   254  21:26      2.75   47.48    0.79
  30                   CONDUIT  17133.05   254  21:29      2.79   27.83    0.61
  31                   CONDUIT  11269.16   254  21:27      0.94   18.30    0.91
  32                   CONDUIT  28923.87   254  21:38      2.79    0.59    0.77
  33                   CONDUIT   3846.93     2  09:11      1.10   10.82    0.92
  34                   CONDUIT      0.00     0  00:00      0.00    0.00    0.27
  35                   CONDUIT    584.46   254  21:27      0.97    0.91    0.72
  36                   CONDUIT  28934.24   254  21:38      3.34    0.20    0.65
  
  
  ***************************
  Flow Classification Summary
  ***************************
  
  -------------------------------------------------------------------------------------
                      Adjusted    ---------- Fraction of Time in Flow Class ---------- 
                       /Actual         Up    Down  Sub   Sup   Up    Down  Norm  Inlet 
  Conduit               Length    Dry  Dry   Dry   Crit  Crit  Crit  Crit  Ltd   Ctrl  
  -------------------------------------------------------------------------------------
  0                       1.00   1.00  0.00  0.00  0.00  0.00  0.00  0.00  0.00  0.00
  1                       1.00   1.00  0.00  0.00  0.00  0.00  0.00  0.00  0.00  0.00
  2                       1.00   0.85  0.15  0.00  0.00  0.00  0.00  0.00  0.00  0.00
  3                       1.00   0.00  0.85  0.00  0.15  0.00  0.00  0.00  0.99  0.00
  4                       1.00   0.63  0.00  0.00  0.37  0.00  0.00  0.00  0.12  0.00
  5                       1.00   0.00  1.00  0.00  0.00  0.00  0.00  0.00  0.00  0.00
  6                       1.00   0.00  0.00  0.00  1.00  0.00  0.00  0.00  0.00  0.00
  7                       1.00   0.00  0.02  0.00  0.98  0.00  0.00  0.00  0.99  0.00
  8                       1.00   0.00  0.01  0.00  0.60  0.39  0.00  0.00  0.99  0.00
  9                       1.00   0.00  0.00  0.00  0.26  0.74  0.00  0.00  0.00  0.00
  10                      1.00   0.00  0.00  0.00  1.00  0.00  0.00  0.00  0.99  0.00
  11                      1.00   0.00  0.00  0.00  1.00  0.00  0.00  0.00  0.00  0.00
  12                      1.00   0.00  0.70  0.00  0.29  0.00  0.00  0.00  0.99  0.00
  13                      1.00   0.00  0.00  0.00  0.63  0.37  0.00  0.00  0.00  0.00
  14                      1.00   0.00  0.00  0.00  1.00  0.00  0.00  0.00  0.99  0.00
  15                      1.00   0.00  0.01  0.00  0.99  0.00  0.00  0.00  0.99  0.00
  16                      1.00   0.00  0.00  0.00  1.00  0.00  0.00  0.00  0.00  0.00
  17                      1.00   0.00  0.01  0.00  0.99  0.00  0.00  0.00  0.99  0.00
  18                      1.00   0.00  0.00  0.00  0.85  0.15  0.00  0.00  0.12  0.00
  19                      1.00   0.00  0.00  0.00  0.00  1.00  0.00  0.00  0.00  0.00
  20                      1.00   0.00  0.64  0.00  0.36  0.00  0.00  0.00  0.99  0.00
  21                      1.00   0.00  0.00  0.00  1.00  0.00  0.00  0.00  0.99  0.00
  22                      1.00   0.00  0.00  0.00  1.00  0.00  0.00  0.00  0.00  0.00
  23                      1.00   0.00  0.00  0.00  1.00  0.00  0.00  0.00  0.00  0.00
  24                      1.00   0.00  0.00  0.00  0.64  0.35  0.00  0.00  0.99  0.00
  25                      1.00   0.00  0.00  0.00  1.00  0.00  0.00  0.00  0.99  0.00
  26                      1.00   0.00  1.00  0.00  0.00  0.00  0.00  0.00  0.00  0.00
  27                      1.00   0.00  0.00  0.00  1.00  0.00  0.00  0.00  0.00  0.00
  28                      1.00   0.00  0.00  0.00  1.00  0.00  0.00  0.00  0.00  0.00
  29                      1.00   0.00  0.00  0.00  1.00  0.00  0.00  0.00  0.00  0.00
  30                      1.00   0.00  0.00  0.00  1.00  0.00  0.00  0.00  0.00  0.00
  31                      1.00   0.00  0.00  0.00  1.00  0.00  0.00  0.00  0.00  0.00
  32                      1.00   0.00  0.00  0.00  1.00  0.00  0.00  0.00  0.99  0.00
  33                      1.00   0.00  0.00  0.00  1.00  0.00  0.00  0.00  0.00  0.00
  34                      1.00   0.00  1.00  0.00  0.00  0.00  0.00  0.00  0.00  0.00
  35                      1.00   0.00  0.00  0.00  1.00  0.00  0.00  0.00  0.00  0.00
  36                      1.00   0.00  0.00  0.00  1.00  0.00  0.00  0.00  0.41  0.00
  
  
  *************************
  Conduit Surcharge Summary
  *************************
  
  ----------------------------------------------------------------------------
                                                           Hours        Hours 
                         --------- Hours Full --------   Above Full   Capacity
  Conduit                Both Ends  Upstream  Dnstream   Normal Flow   Limited
  ----------------------------------------------------------------------------
  3                           0.01      0.01      1.94      0.01         0.01
  6                           0.01      0.01      0.01   2487.59         0.01
  11                          0.01      0.01      0.01   3268.94         0.01
  16                          0.01      0.01      0.01   1185.30         0.01
  22                          0.01      0.01      0.01   5110.03         0.01
  23                          0.01      0.01      0.01   4951.52         0.01
  27                          0.01      0.01      0.01   3632.12         0.01
  28                          0.01      0.01      0.01   3256.76         0.01
  29                          0.01      0.01      0.01   6055.03         0.01
  30                          0.01      0.01      0.01   4163.52         0.01
  31                          0.01      0.01      0.01   2530.02         0.01
  32                          0.01      0.01   7884.14      0.01         0.01
  33                          0.01      0.01      0.01   4564.30         0.01
  35                          0.01   2785.38      0.01      0.01         0.01
  36                          0.01      0.01   7882.71      0.01         0.01
  

  Analysis begun on:  Tue Apr 14 17:59:15 2020
  Analysis ended on:  Tue Apr 14 18:03:14 2020
  Total elapsed time: 00:03:59