
  EPA STORM WATER MANAGEMENT MODEL - VERSION 5.1 (Build 5.1.013)
  --------------------------------------------------------------

  Template input file for Gottesacker karst system.  
  Based on input files created by Zhao Chen. 
  Modified by Chloe Fandel: 
  
  WARNING 08: elevation drop exceeds length for Conduit 2
  WARNING 04: minimum elevation drop used for Conduit 4
  WARNING 04: minimum elevation drop used for Conduit 11
  WARNING 04: minimum elevation drop used for Conduit 18
  WARNING 08: elevation drop exceeds length for Conduit 20
  
  *********************************************************
  NOTE: The summary statistics displayed in this report are
  based on results found at every computational time step,  
  not just on results from each reporting time step.
  *********************************************************
  
  ****************
  Analysis Options
  ****************
  Flow Units ............... LPS
  Process Models:
    Rainfall/Runoff ........ YES
    RDII ................... NO
    Snowmelt ............... NO
    Groundwater ............ NO
    Flow Routing ........... YES
    Ponding Allowed ........ NO
    Water Quality .......... NO
  Infiltration Method ...... HORTON
  Flow Routing Method ...... DYNWAVE
  Surcharge Method ......... EXTRAN
  Starting Date ............ 11/14/2013 00:00:00
  Ending Date .............. 10/11/2014 00:00:00
  Antecedent Dry Days ...... 0.0
  Report Time Step ......... 01:00:00
  Wet Time Step ............ 00:30:00
  Dry Time Step ............ 01:00:00
  Routing Time Step ........ 30.00 sec
  Variable Time Step ....... YES
  Maximum Trials ........... 8
  Number of Threads ........ 4
  Head Tolerance ........... 0.001524 m
  
  
  **************************        Volume         Depth
  Runoff Quantity Continuity     hectare-m            mm
  **************************     ---------       -------
  Total Precipitation ......      1918.244       705.626
  Evaporation Loss .........         0.000         0.000
  Infiltration Loss ........         0.000         0.000
  Surface Runoff ...........      1915.103       704.470
  Final Storage ............         3.433         1.263
  Continuity Error (%) .....        -0.015
  
  
  **************************        Volume        Volume
  Flow Routing Continuity        hectare-m      10^6 ltr
  **************************     ---------     ---------
  Dry Weather Inflow .......         0.000         0.000
  Wet Weather Inflow .......      1915.052     19150.717
  Groundwater Inflow .......         0.000         0.000
  RDII Inflow ..............         0.000         0.000
  External Inflow ..........        27.076       270.758
  External Outflow .........      2109.187     21092.088
  Flooding Loss ............         0.000         0.000
  Evaporation Loss .........         0.000         0.000
  Exfiltration Loss ........         0.000         0.000
  Initial Stored Volume ....         0.000         0.000
  Final Stored Volume ......         1.356        13.563
  Continuity Error (%) .....        -8.672
  
  
  *************************
  Highest Continuity Errors
  *************************
  Node 21 (63.68%)
  Node 19 (15.23%)
  Node 9 (11.03%)
  Node 20 (-3.11%)
  
  
  ***************************
  Time-Step Critical Elements
  ***************************
  Link 24 (13.10%)
  Link 22 (10.85%)
  Link 18 (1.24%)
  
  
  ********************************
  Highest Flow Instability Indexes
  ********************************
  Link 11 (125)
  Link 12 (118)
  Link 24 (49)
  Link 6 (46)
  Link 18 (33)
  
  
  *************************
  Routing Time Step Summary
  *************************
  Minimum Time Step           :     2.62 sec
  Average Time Step           :    25.98 sec
  Maximum Time Step           :    30.00 sec
  Percent in Steady State     :     0.30
  Average Iterations per Step :     5.66
  Percent Not Converging      :    55.82
  
  
  ***************************
  Subcatchment Runoff Summary
  ***************************
  
  ------------------------------------------------------------------------------------------------------------------------------
                            Total      Total      Total      Total     Imperv       Perv      Total       Total     Peak  Runoff
                           Precip      Runon       Evap      Infil     Runoff     Runoff     Runoff      Runoff   Runoff   Coeff
  Subcatchment                 mm         mm         mm         mm         mm         mm         mm    10^6 ltr      LPS
  ------------------------------------------------------------------------------------------------------------------------------
  S1                         0.00       0.00       0.00       0.00       0.00       0.00       0.00        0.00     0.00   0.000
  S2                         0.00       0.00       0.00       0.00       0.00       0.00       0.00        0.00     0.00   0.000
  S3                         0.00       0.00       0.00       0.00       0.00       0.00       0.00        0.00     0.00   0.000
  S4                         0.00       0.00       0.00       0.00       0.00       0.00       0.00        0.00     0.00   0.000
  S5                      1037.52       0.00       0.00       0.00    1038.15       0.00    1038.15       72.67    62.44   1.001
  S6                      1025.22       0.00       0.00       0.00    1025.31       0.00    1025.31      371.68   262.35   1.000
  S7                      1067.22       0.00       0.00       0.00    1067.44       0.00    1067.44      296.22   218.08   1.000
  S8                      1385.10       0.00       0.00       0.00    1385.52       0.00    1385.52      498.79   466.98   1.000
  S9                      1036.22       0.00       0.00       0.00    1036.14       0.00    1036.14      841.87   614.86   1.000
  S10                     1303.86       0.00       0.00       0.00    1304.83       0.00    1304.83      123.96   153.90   1.001
  S11                     1323.24       0.00       0.00       0.00    1324.30       0.00    1324.30      115.88   125.53   1.001
  S12                     1003.45       0.00       0.00       0.00    1004.05       0.00    1004.05       80.32    68.42   1.001
  S13                     1565.06       0.00       0.00       0.00    1565.91       0.00    1565.91      246.63   210.79   1.001
  S14                     1589.63       0.00       0.00       0.00    1590.24       0.00    1590.24      381.66   311.46   1.000
  S15                     1292.86       0.00       0.00       0.00    1293.18       0.00    1293.18      484.95   498.34   1.000
  S16                      770.39       0.00       0.00       0.00     770.36       0.00     770.36      381.33   362.19   1.000
  S17                        0.00       0.00       0.00       0.00       0.00       0.00       0.00        0.00     0.00   0.000
  S18                     1447.74       0.00       0.00       0.00    1447.95       0.00    1447.95      908.60   777.54   1.000
  S19                     1445.01       0.00       0.00       0.00    1445.95       0.00    1445.95      195.20   205.61   1.001
  S20                      848.36       0.00       0.00       0.00     846.43       0.00     846.43    13936.51  5208.68   0.998
  S21                     1369.60       0.00       0.00       0.00    1371.06       0.00    1371.06       82.26    92.06   1.001
  S22                       22.11       0.00       0.00       0.00      21.88       0.00      21.88       81.55    15.50   0.989
  S23                     1359.91       0.00       0.00       0.00    1361.72       0.00    1361.72       51.06    60.01   1.001
  S24                        0.00       0.00       0.00       0.00       0.00       0.00       0.00        0.00     0.00   0.000
  S25                        0.00       0.00       0.00       0.00       0.00       0.00       0.00        0.00     0.00   0.000
  
  
  ******************
  Node Depth Summary
  ******************
  
  ---------------------------------------------------------------------------------
                                 Average  Maximum  Maximum  Time of Max    Reported
                                   Depth    Depth      HGL   Occurrence   Max Depth
  Node                 Type       Meters   Meters   Meters  days hr:min      Meters
  ---------------------------------------------------------------------------------
  0                    JUNCTION     0.00     0.00  1872.50     0  00:00        0.00
  1                    JUNCTION     0.00     0.00  1735.00     0  00:00        0.00
  2                    JUNCTION     0.00     0.00  1762.50     0  00:00        0.00
  3                    JUNCTION     0.00     0.00  1432.50     0  00:00        0.00
  4                    JUNCTION     0.01     0.07  1955.07   259  03:02        0.07
  5                    JUNCTION     0.01     0.08  1927.58   259  03:00        0.08
  6                    JUNCTION     0.05     0.23  1817.73   259  03:06        0.23
  7                    JUNCTION     0.03     0.19  1762.69   262  21:01        0.19
  8                    JUNCTION     0.19     0.97  1625.97   221  18:12        0.94
  9                    JUNCTION     0.62     2.61  1627.61   221  18:05        2.57
  10                   JUNCTION     0.00     0.01  1707.51   161  14:07        0.01
  11                   JUNCTION     0.03     0.17  1680.17   259  03:13        0.17
  12                   JUNCTION     0.13     0.45  1377.95   259  04:09        0.44
  13                   JUNCTION     0.06     0.27  1377.77   259  03:28        0.27
  14                   JUNCTION     0.03     0.19  1680.19   262  21:00        0.19
  15                   JUNCTION     0.06     0.32  1542.82   262  21:05        0.32
  16                   JUNCTION     0.00     0.00  1570.00     0  00:00        0.00
  17                   JUNCTION     0.15     0.68  1433.18   221  18:19        0.64
  18                   JUNCTION     0.17     0.78  1130.78   221  18:23        0.71
  19                   JUNCTION     8.11    18.45  1120.95   259  03:19       18.44
  20                   JUNCTION     8.09    18.45  1120.95   259  03:19       18.44
  21                   JUNCTION    13.98    16.13  1036.13   227  10:28       15.60
  22                   OUTFALL      0.09     0.67  1120.67   259  03:19        0.66
  23                   OUTFALL      0.34     0.50  1080.50   259  03:19        0.50
  24                   OUTFALL      0.04     0.76  1035.76   153  15:42        0.67
  
  
  *******************
  Node Inflow Summary
  *******************
  
  -------------------------------------------------------------------------------------------------
                                  Maximum  Maximum                  Lateral       Total        Flow
                                  Lateral    Total  Time of Max      Inflow      Inflow     Balance
                                   Inflow   Inflow   Occurrence      Volume      Volume       Error
  Node                 Type           LPS      LPS  days hr:min    10^6 ltr    10^6 ltr     Percent
  -------------------------------------------------------------------------------------------------
  0                    JUNCTION      0.00     0.00     0  00:00           0           0       0.000 ltr
  1                    JUNCTION      0.00     0.00     0  00:00           0           0       0.000 ltr
  2                    JUNCTION      0.00     0.00     0  00:00           0           0       0.000 ltr
  3                    JUNCTION      0.00     0.00     0  00:00           0           0       0.000 ltr
  4                    JUNCTION     63.47    63.47   259  03:00        74.7        74.7      -0.059
  5                    JUNCTION    263.33   263.33   259  03:00         374         374       0.000
  6                    JUNCTION    219.04   544.97   259  03:00         298         748      -0.017
  7                    JUNCTION    467.05   467.05   262  21:00         499         499       0.060
  8                    JUNCTION    615.26  9118.77   221  18:07         843    1.14e+04      -0.083
  9                    JUNCTION    154.39 20556.04   221  18:01         125    1.15e+04      12.397
  10                   JUNCTION    125.63   125.63   262  21:00         116         116       0.000
  11                   JUNCTION     69.12   608.04   259  03:05        82.3         830      -0.009
  12                   JUNCTION    210.79   210.79   259  03:00         247         247       0.023
  13                   JUNCTION    311.46   804.98   259  03:09         382     1.1e+03      -0.113
  14                   JUNCTION    498.34   498.34   262  21:00         485         485      -0.014
  15                   JUNCTION    362.19   858.53   262  21:00         381         866       0.059
  16                   JUNCTION      0.00     0.00     0  00:00           0           0       0.000 ltr
  17                   JUNCTION    777.54  9403.98   221  18:14         909    1.32e+04       0.002
  18                   JUNCTION    205.61  9455.10   221  18:19         195    1.34e+04      -0.008
  19                   JUNCTION   5208.72  7959.80   259  03:19    1.39e+04     2.1e+04      17.965
  20                   JUNCTION     92.06  2168.50   227  10:27        82.2    1.11e+04      -3.018
  21                   JUNCTION     15.50  5224.24   221  18:23        81.5    7.77e+03     175.319
  22                   OUTFALL      60.01  7316.42   259  03:18        51.1    6.88e+03       0.000
  23                   OUTFALL       0.00   775.80   259  03:19           0    1.14e+04       0.000
  24                   OUTFALL       0.00 11283.89   153  15:42           0    3.08e+03       0.000
  
  
  **********************
  Node Surcharge Summary
  **********************
  
  Surcharging occurs when water rises above the top of the highest conduit.
  ---------------------------------------------------------------------
                                               Max. Height   Min. Depth
                                   Hours       Above Crown    Below Rim
  Node                 Type      Surcharged         Meters       Meters
  ---------------------------------------------------------------------
  19                   JUNCTION     2975.86         14.454        0.000
  20                   JUNCTION     2975.74         14.453        0.000
  21                   JUNCTION     7219.73         12.125        0.000
  
  
  *********************
  Node Flooding Summary
  *********************
  
  No nodes were flooded.
  
  
  ***********************
  Outfall Loading Summary
  ***********************
  
  -----------------------------------------------------------
                         Flow       Avg       Max       Total
                         Freq      Flow      Flow      Volume
  Outfall Node           Pcnt       LPS       LPS    10^6 ltr
  -----------------------------------------------------------
  22                    77.87    656.85   7316.42    6878.693
  23                    99.34    450.25    775.80   11406.806
  24                    90.63    228.76  11283.89    3079.927
  -----------------------------------------------------------
  System                89.28   1335.86  11283.89   21365.426
  
  
  ********************
  Link Flow Summary
  ********************
  
  -----------------------------------------------------------------------------
                                 Maximum  Time of Max   Maximum    Max/    Max/
                                  |Flow|   Occurrence   |Veloc|    Full    Full
  Link                 Type          LPS  days hr:min     m/sec    Flow   Depth
  -----------------------------------------------------------------------------
  0                    CONDUIT      0.00     0  00:00      0.00    0.00    0.00
  1                    CONDUIT      0.00     0  00:00      0.00    0.00    0.06
  2                    CONDUIT      0.00     0  00:00      0.00    0.00    0.00
  3                    CONDUIT      0.00     0  00:00      0.00    0.00    0.06
  4                    CONDUIT    167.04   259  04:08      0.30    0.41    0.09
  5                    CONDUIT     62.92   259  03:02      0.43    0.00    0.04
  6                    CONDUIT    263.29   259  03:00      1.64    0.00    0.04
  7                    CONDUIT    540.41   259  03:07     17.25    0.01    0.05
  8                    CONDUIT    257.55   259  03:13      0.78    0.00    0.14
  9                    CONDUIT    346.70   259  03:13      1.28    0.00    0.05
  10                   CONDUIT    464.53   262  21:01      0.17    0.00    0.34
  11                   CONDUIT   8801.44   221  18:06      1.62   28.59    0.45
  12                   CONDUIT  20304.99   221  18:00      6.86    0.00    0.33
  13                   CONDUIT   8877.98   221  18:13      4.76    0.12    0.21
  14                   CONDUIT    847.71   262  21:05      1.31    0.01    0.11
  15                   CONDUIT   9352.84   221  18:19      6.02    0.07    0.18
  16                   CONDUIT    793.32   259  03:28      0.12    0.01    0.53
  17                   CONDUIT   4187.11   221  18:23      1.06    0.09    0.59
  18                   CONDUIT   2118.01   227  10:27      0.30    5.96    1.00
  19                   CONDUIT    496.77   262  21:01      1.47    0.00    0.06
  20                   CONDUIT      0.00     0  00:00      0.00    0.00    0.04
  21                   CONDUIT   5222.07   221  18:23      6.58    0.09    0.60
  22                   CONDUIT   7264.80   259  03:19      0.95    0.06    0.58
  23                   CONDUIT    775.80   259  03:19      1.23    1.21    0.75
  24                   CONDUIT  11283.89   153  15:42      1.80    0.08    0.63
  
  
  ***************************
  Flow Classification Summary
  ***************************
  
  -------------------------------------------------------------------------------------
                      Adjusted    ---------- Fraction of Time in Flow Class ---------- 
                       /Actual         Up    Down  Sub   Sup   Up    Down  Norm  Inlet 
  Conduit               Length    Dry  Dry   Dry   Crit  Crit  Crit  Crit  Ltd   Ctrl  
  -------------------------------------------------------------------------------------
  0                       1.00   1.00  0.00  0.00  0.00  0.00  0.00  0.00  0.00  0.00
  1                       1.00   0.00  0.99  0.00  0.00  0.00  0.00  0.00  0.00  0.00
  2                       1.00   1.00  0.00  0.00  0.00  0.00  0.00  0.00  0.00  0.00
  3                       1.00   0.00  0.99  0.00  0.00  0.00  0.00  0.00  0.00  0.00
  4                       1.00   0.00  0.00  0.00  0.99  0.00  0.00  0.00  0.00  0.00
  5                       1.00   0.00  0.02  0.00  0.97  0.00  0.00  0.00  0.99  0.00
  6                       1.00   0.00  0.14  0.00  0.27  0.58  0.00  0.00  0.78  0.00
  7                       1.00   0.00  0.00  0.00  0.28  0.72  0.00  0.00  0.01  0.00
  8                       1.00   0.00  0.00  0.00  0.99  0.00  0.00  0.00  0.99  0.00
  9                       1.00   0.00  0.00  0.00  0.93  0.06  0.00  0.00  0.99  0.00
  10                      1.00   0.00  0.00  0.00  0.99  0.00  0.00  0.00  0.99  0.00
  11                      1.00   0.00  0.00  0.00  0.99  0.00  0.00  0.00  0.00  0.00
  12                      1.00   0.00  0.57  0.00  0.42  0.00  0.00  0.00  0.99  0.00
  13                      1.00   0.00  0.00  0.00  0.05  0.94  0.00  0.00  0.01  0.00
  14                      1.00   0.00  0.00  0.00  0.99  0.00  0.00  0.00  0.99  0.00
  15                      1.00   0.00  0.00  0.00  0.00  0.99  0.00  0.00  0.97  0.00
  16                      1.00   0.00  0.00  0.00  0.99  0.00  0.00  0.00  0.99  0.00
  17                      1.00   0.00  0.00  0.00  0.99  0.00  0.00  0.00  0.99  0.00
  18                      1.00   0.00  0.00  0.00  0.99  0.00  0.00  0.00  0.00  0.00
  19                      1.00   0.00  0.01  0.00  0.90  0.09  0.00  0.00  0.99  0.00
  20                      1.00   0.00  0.99  0.00  0.00  0.00  0.00  0.00  0.00  0.00
  21                      1.00   0.00  0.00  0.00  0.99  0.00  0.00  0.00  0.99  0.00
  22                      1.00   0.00  0.61  0.00  0.39  0.00  0.00  0.00  0.51  0.00
  23                      1.00   0.00  0.00  0.00  0.99  0.00  0.00  0.00  0.00  0.00
  24                      1.00   0.00  0.09  0.00  0.91  0.00  0.00  0.00  0.67  0.00
  
  
  *************************
  Conduit Surcharge Summary
  *************************
  
  ----------------------------------------------------------------------------
                                                           Hours        Hours 
                         --------- Hours Full --------   Above Full   Capacity
  Conduit                Both Ends  Upstream  Dnstream   Normal Flow   Limited
  ----------------------------------------------------------------------------
  11                          0.01      0.01      0.01   2355.85         0.01
  16                          0.01      0.01   2975.92      0.01         0.01
  17                          0.01      0.01   2975.92      0.01         0.01
  18                       2975.67   2975.92   2975.67   4018.43      2260.93
  21                          0.01      0.01   7219.72      0.01         0.01
  22                          0.01      0.01   5069.50      0.01         0.01
  23                          0.01   3852.10      0.01   2822.28         0.01
  24                          0.01      0.01   7087.91      0.01         0.01
  

  Analysis begun on:  Tue Apr 14 22:02:19 2020
  Analysis ended on:  Tue Apr 14 22:03:44 2020
  Total elapsed time: 00:01:25