
  EPA STORM WATER MANAGEMENT MODEL - VERSION 5.1 (Build 5.1.013)
  --------------------------------------------------------------

  Template input file for Gottesacker karst system.  
  Based on input files created by Zhao Chen. 
  Modified by Chloe Fandel: 
  
  WARNING 04: minimum elevation drop used for Conduit 1
  WARNING 04: minimum elevation drop used for Conduit 4
  WARNING 04: minimum elevation drop used for Conduit 5
  WARNING 04: minimum elevation drop used for Conduit 16
  WARNING 04: minimum elevation drop used for Conduit 17
  WARNING 04: minimum elevation drop used for Conduit 19
  WARNING 04: minimum elevation drop used for Conduit 20
  WARNING 04: minimum elevation drop used for Conduit 21
  WARNING 04: minimum elevation drop used for Conduit 22
  WARNING 04: minimum elevation drop used for Conduit 23
  WARNING 04: minimum elevation drop used for Conduit 24
  WARNING 04: minimum elevation drop used for Conduit 27
  WARNING 04: minimum elevation drop used for Conduit 30
  WARNING 04: minimum elevation drop used for Conduit 31
  WARNING 04: minimum elevation drop used for Conduit 32
  WARNING 04: minimum elevation drop used for Conduit 34
  WARNING 04: minimum elevation drop used for Conduit 36
  WARNING 04: minimum elevation drop used for Conduit 37
  WARNING 08: elevation drop exceeds length for Conduit 38
  WARNING 04: minimum elevation drop used for Conduit 39
  WARNING 04: minimum elevation drop used for Conduit 43
  WARNING 08: elevation drop exceeds length for Conduit 46
  WARNING 04: minimum elevation drop used for Conduit 47
  WARNING 04: minimum elevation drop used for Conduit 50
  WARNING 04: minimum elevation drop used for Conduit 51
  WARNING 08: elevation drop exceeds length for Conduit 52
  WARNING 04: minimum elevation drop used for Conduit 53
  WARNING 04: minimum elevation drop used for Conduit 54
  WARNING 08: elevation drop exceeds length for Conduit 55
  WARNING 04: minimum elevation drop used for Conduit 57
  WARNING 08: elevation drop exceeds length for Conduit 60
  WARNING 04: minimum elevation drop used for Conduit 61
  WARNING 04: minimum elevation drop used for Conduit 62
  WARNING 04: minimum elevation drop used for Conduit 63
  WARNING 04: minimum elevation drop used for Conduit 64
  WARNING 04: minimum elevation drop used for Conduit 65
  WARNING 04: minimum elevation drop used for Conduit 66
  WARNING 04: minimum elevation drop used for Conduit 67
  WARNING 04: minimum elevation drop used for Conduit 68
  WARNING 04: minimum elevation drop used for Conduit 69
  WARNING 08: elevation drop exceeds length for Conduit 70
  WARNING 04: minimum elevation drop used for Conduit 72
  WARNING 04: minimum elevation drop used for Conduit 73
  WARNING 08: elevation drop exceeds length for Conduit 75
  WARNING 04: minimum elevation drop used for Conduit 76
  WARNING 04: minimum elevation drop used for Conduit 77
  WARNING 08: elevation drop exceeds length for Conduit 80
  WARNING 04: minimum elevation drop used for Conduit 82
  WARNING 04: minimum elevation drop used for Conduit 83
  WARNING 08: elevation drop exceeds length for Conduit 87
  WARNING 04: minimum elevation drop used for Conduit 88
  WARNING 04: minimum elevation drop used for Conduit 89
  WARNING 04: minimum elevation drop used for Conduit 90
  WARNING 04: minimum elevation drop used for Conduit 91
  WARNING 04: minimum elevation drop used for Conduit 92
  WARNING 04: minimum elevation drop used for Conduit 93
  WARNING 04: minimum elevation drop used for Conduit 94
  WARNING 04: minimum elevation drop used for Conduit 95
  WARNING 04: minimum elevation drop used for Conduit 96
  WARNING 08: elevation drop exceeds length for Conduit 97
  WARNING 04: minimum elevation drop used for Conduit 98
  WARNING 08: elevation drop exceeds length for Conduit 99
  WARNING 04: minimum elevation drop used for Conduit 100
  WARNING 04: minimum elevation drop used for Conduit 101
  WARNING 04: minimum elevation drop used for Conduit 102
  WARNING 04: minimum elevation drop used for Conduit 103
  WARNING 04: minimum elevation drop used for Conduit 104
  WARNING 04: minimum elevation drop used for Conduit 105
  WARNING 04: minimum elevation drop used for Conduit 106
  WARNING 04: minimum elevation drop used for Conduit 107
  WARNING 04: minimum elevation drop used for Conduit 108
  WARNING 08: elevation drop exceeds length for Conduit 109
  WARNING 04: minimum elevation drop used for Conduit 110
  WARNING 04: minimum elevation drop used for Conduit 111
  WARNING 08: elevation drop exceeds length for Conduit 112
  WARNING 04: minimum elevation drop used for Conduit 116
  WARNING 04: minimum elevation drop used for Conduit 117
  WARNING 04: minimum elevation drop used for Conduit 118
  WARNING 04: minimum elevation drop used for Conduit 119
  WARNING 08: elevation drop exceeds length for Conduit 120
  WARNING 04: minimum elevation drop used for Conduit 121
  WARNING 04: minimum elevation drop used for Conduit 122
  WARNING 04: minimum elevation drop used for Conduit 123
  WARNING 08: elevation drop exceeds length for Conduit 124
  WARNING 04: minimum elevation drop used for Conduit 126
  WARNING 08: elevation drop exceeds length for Conduit 127
  WARNING 04: minimum elevation drop used for Conduit 129
  WARNING 04: minimum elevation drop used for Conduit 130
  WARNING 08: elevation drop exceeds length for Conduit 131
  WARNING 04: minimum elevation drop used for Conduit 132
  WARNING 04: minimum elevation drop used for Conduit 133
  WARNING 08: elevation drop exceeds length for Conduit 134
  WARNING 04: minimum elevation drop used for Conduit 135
  WARNING 04: minimum elevation drop used for Conduit 137
  WARNING 08: elevation drop exceeds length for Conduit 138
  WARNING 04: minimum elevation drop used for Conduit 139
  WARNING 04: minimum elevation drop used for Conduit 143
  WARNING 04: minimum elevation drop used for Conduit 144
  WARNING 04: minimum elevation drop used for Conduit 145
  WARNING 04: minimum elevation drop used for Conduit 146
  WARNING 08: elevation drop exceeds length for Conduit 147
  WARNING 04: minimum elevation drop used for Conduit 148
  WARNING 04: minimum elevation drop used for Conduit 149
  WARNING 04: minimum elevation drop used for Conduit 151
  WARNING 04: minimum elevation drop used for Conduit 153
  WARNING 04: minimum elevation drop used for Conduit 155
  WARNING 08: elevation drop exceeds length for Conduit 156
  WARNING 04: minimum elevation drop used for Conduit 157
  WARNING 04: minimum elevation drop used for Conduit 158
  WARNING 04: minimum elevation drop used for Conduit 160
  WARNING 04: minimum elevation drop used for Conduit 163
  WARNING 04: minimum elevation drop used for Conduit 165
  WARNING 04: minimum elevation drop used for Conduit 166
  WARNING 08: elevation drop exceeds length for Conduit 167
  WARNING 08: elevation drop exceeds length for Conduit 169
  WARNING 04: minimum elevation drop used for Conduit 170
  WARNING 04: minimum elevation drop used for Conduit 171
  WARNING 08: elevation drop exceeds length for Conduit 172
  WARNING 04: minimum elevation drop used for Conduit 174
  WARNING 04: minimum elevation drop used for Conduit 176
  WARNING 04: minimum elevation drop used for Conduit 178
  WARNING 04: minimum elevation drop used for Conduit 179
  WARNING 04: minimum elevation drop used for Conduit 181
  WARNING 04: minimum elevation drop used for Conduit 182
  WARNING 04: minimum elevation drop used for Conduit 184
  WARNING 04: minimum elevation drop used for Conduit 186
  WARNING 04: minimum elevation drop used for Conduit 192
  WARNING 04: minimum elevation drop used for Conduit 194
  WARNING 04: minimum elevation drop used for Conduit 197
  WARNING 04: minimum elevation drop used for Conduit 198
  WARNING 04: minimum elevation drop used for Conduit 199
  WARNING 04: minimum elevation drop used for Conduit 200
  WARNING 04: minimum elevation drop used for Conduit 201
  WARNING 04: minimum elevation drop used for Conduit 202
  WARNING 04: minimum elevation drop used for Conduit 203
  WARNING 04: minimum elevation drop used for Conduit 204
  WARNING 08: elevation drop exceeds length for Conduit 205
  WARNING 04: minimum elevation drop used for Conduit 206
  WARNING 04: minimum elevation drop used for Conduit 207
  WARNING 04: minimum elevation drop used for Conduit 208
  WARNING 04: minimum elevation drop used for Conduit 209
  WARNING 08: elevation drop exceeds length for Conduit 212
  WARNING 04: minimum elevation drop used for Conduit 213
  WARNING 04: minimum elevation drop used for Conduit 219
  WARNING 04: minimum elevation drop used for Conduit 220
  WARNING 04: minimum elevation drop used for Conduit 223
  WARNING 04: minimum elevation drop used for Conduit 224
  WARNING 04: minimum elevation drop used for Conduit 225
  WARNING 04: minimum elevation drop used for Conduit 226
  WARNING 04: minimum elevation drop used for Conduit 227
  WARNING 04: minimum elevation drop used for Conduit 228
  WARNING 04: minimum elevation drop used for Conduit 229
  WARNING 04: minimum elevation drop used for Conduit 231
  WARNING 04: minimum elevation drop used for Conduit 234
  WARNING 04: minimum elevation drop used for Conduit 237
  WARNING 04: minimum elevation drop used for Conduit 240
  WARNING 04: minimum elevation drop used for Conduit 241
  WARNING 04: minimum elevation drop used for Conduit 242
  WARNING 04: minimum elevation drop used for Conduit 243
  WARNING 04: minimum elevation drop used for Conduit 244
  WARNING 04: minimum elevation drop used for Conduit 247
  WARNING 04: minimum elevation drop used for Conduit 249
  WARNING 08: elevation drop exceeds length for Conduit 250
  WARNING 04: minimum elevation drop used for Conduit 251
  WARNING 04: minimum elevation drop used for Conduit 253
  WARNING 08: elevation drop exceeds length for Conduit 254
  WARNING 04: minimum elevation drop used for Conduit 256
  WARNING 04: minimum elevation drop used for Conduit 257
  WARNING 04: minimum elevation drop used for Conduit 258
  WARNING 04: minimum elevation drop used for Conduit 259
  WARNING 04: minimum elevation drop used for Conduit 260
  WARNING 04: minimum elevation drop used for Conduit 261
  WARNING 04: minimum elevation drop used for Conduit 262
  WARNING 04: minimum elevation drop used for Conduit 263
  WARNING 04: minimum elevation drop used for Conduit 264
  WARNING 04: minimum elevation drop used for Conduit 266
  WARNING 04: minimum elevation drop used for Conduit 267
  WARNING 04: minimum elevation drop used for Conduit 268
  WARNING 04: minimum elevation drop used for Conduit 269
  WARNING 04: minimum elevation drop used for Conduit 270
  WARNING 04: minimum elevation drop used for Conduit 271
  WARNING 04: minimum elevation drop used for Conduit 273
  WARNING 04: minimum elevation drop used for Conduit 275
  WARNING 04: minimum elevation drop used for Conduit 277
  WARNING 04: minimum elevation drop used for Conduit 279
  WARNING 04: minimum elevation drop used for Conduit 280
  WARNING 04: minimum elevation drop used for Conduit 281
  WARNING 04: minimum elevation drop used for Conduit 282
  WARNING 04: minimum elevation drop used for Conduit 284
  WARNING 04: minimum elevation drop used for Conduit 285
  WARNING 04: minimum elevation drop used for Conduit 286
  WARNING 04: minimum elevation drop used for Conduit 287
  WARNING 04: minimum elevation drop used for Conduit 288
  WARNING 04: minimum elevation drop used for Conduit 289
  WARNING 04: minimum elevation drop used for Conduit 290
  WARNING 04: minimum elevation drop used for Conduit 295
  WARNING 04: minimum elevation drop used for Conduit 297
  WARNING 04: minimum elevation drop used for Conduit 298
  WARNING 04: minimum elevation drop used for Conduit 299
  WARNING 04: minimum elevation drop used for Conduit 300
  WARNING 04: minimum elevation drop used for Conduit 301
  WARNING 04: minimum elevation drop used for Conduit 302
  WARNING 08: elevation drop exceeds length for Conduit 303
  WARNING 04: minimum elevation drop used for Conduit 304
  WARNING 04: minimum elevation drop used for Conduit 308
  WARNING 04: minimum elevation drop used for Conduit 309
  WARNING 04: minimum elevation drop used for Conduit 310
  WARNING 04: minimum elevation drop used for Conduit 311
  WARNING 04: minimum elevation drop used for Conduit 312
  WARNING 04: minimum elevation drop used for Conduit 317
  WARNING 04: minimum elevation drop used for Conduit 318
  WARNING 04: minimum elevation drop used for Conduit 319
  WARNING 04: minimum elevation drop used for Conduit 322
  WARNING 04: minimum elevation drop used for Conduit 324
  WARNING 04: minimum elevation drop used for Conduit 325
  WARNING 04: minimum elevation drop used for Conduit 326
  WARNING 04: minimum elevation drop used for Conduit 330
  WARNING 04: minimum elevation drop used for Conduit 337
  WARNING 08: elevation drop exceeds length for Conduit 338
  WARNING 04: minimum elevation drop used for Conduit 339
  WARNING 04: minimum elevation drop used for Conduit 341
  WARNING 04: minimum elevation drop used for Conduit 345
  WARNING 04: minimum elevation drop used for Conduit 346
  WARNING 04: minimum elevation drop used for Conduit 347
  WARNING 04: minimum elevation drop used for Conduit 348
  WARNING 04: minimum elevation drop used for Conduit 349
  WARNING 04: minimum elevation drop used for Conduit 350
  WARNING 04: minimum elevation drop used for Conduit 351
  WARNING 04: minimum elevation drop used for Conduit 352
  WARNING 04: minimum elevation drop used for Conduit 354
  WARNING 04: minimum elevation drop used for Conduit 355
  WARNING 04: minimum elevation drop used for Conduit 357
  WARNING 04: minimum elevation drop used for Conduit 358
  WARNING 04: minimum elevation drop used for Conduit 359
  WARNING 04: minimum elevation drop used for Conduit 366
  
  *********************************************************
  NOTE: The summary statistics displayed in this report are
  based on results found at every computational time step,  
  not just on results from each reporting time step.
  *********************************************************
  
  ****************
  Analysis Options
  ****************
  Flow Units ............... LPS
  Process Models:
    Rainfall/Runoff ........ YES
    RDII ................... NO
    Snowmelt ............... NO
    Groundwater ............ NO
    Flow Routing ........... YES
    Ponding Allowed ........ NO
    Water Quality .......... NO
  Infiltration Method ...... HORTON
  Flow Routing Method ...... DYNWAVE
  Surcharge Method ......... EXTRAN
  Starting Date ............ 11/14/2013 00:00:00
  Ending Date .............. 10/11/2014 00:00:00
  Antecedent Dry Days ...... 0.0
  Report Time Step ......... 01:00:00
  Wet Time Step ............ 00:30:00
  Dry Time Step ............ 01:00:00
  Routing Time Step ........ 30.00 sec
  Variable Time Step ....... YES
  Maximum Trials ........... 8
  Number of Threads ........ 4
  Head Tolerance ........... 0.001524 m
  
  
  **************************        Volume         Depth
  Runoff Quantity Continuity     hectare-m            mm
  **************************     ---------       -------
  Total Precipitation ......      2343.488       713.065
  Evaporation Loss .........         0.000         0.000
  Infiltration Loss ........         0.000         0.000
  Surface Runoff ...........      2343.606       713.101
  Final Storage ............         0.875         0.266
  Continuity Error (%) .....        -0.042
  
  
  **************************        Volume        Volume
  Flow Routing Continuity        hectare-m      10^6 ltr
  **************************     ---------     ---------
  Dry Weather Inflow .......         0.000         0.000
  Wet Weather Inflow .......      2343.590     23436.144
  Groundwater Inflow .......         0.000         0.000
  RDII Inflow ..............         0.000         0.000
  External Inflow ..........         5.374        53.737
  External Outflow .........      2703.127     27031.547
  Flooding Loss ............        61.439       614.393
  Evaporation Loss .........         0.000         0.000
  Exfiltration Loss ........         0.000         0.000
  Initial Stored Volume ....         0.000         0.000
  Final Stored Volume ......         0.551         5.506
  Continuity Error (%) .....       -17.716
  
  
  *************************
  Highest Continuity Errors
  *************************
  Node 150 (-64.79%)
  Node 187 (-26.13%)
  Node 20 (-16.03%)
  Node 149 (15.67%)
  Node 224 (-6.88%)
  
  
  ***************************
  Time-Step Critical Elements
  ***************************
  Link 236 (88.28%)
  Link 210 (3.89%)
  Link 26 (3.23%)
  Link 229 (1.78%)
  Link 228 (1.11%)
  
  
  ********************************
  Highest Flow Instability Indexes
  ********************************
  Link 26 (47)
  Link 255 (46)
  Link 236 (37)
  Link 18 (32)
  Link 231 (16)
  
  
  *************************
  Routing Time Step Summary
  *************************
  Minimum Time Step           :     0.50 sec
  Average Time Step           :     1.36 sec
  Maximum Time Step           :    30.00 sec
  Percent in Steady State     :     0.30
  Average Iterations per Step :     2.75
  Percent Not Converging      :     7.78
  
  
  ***************************
  Subcatchment Runoff Summary
  ***************************
  
  ------------------------------------------------------------------------------------------------------------------------------
                            Total      Total      Total      Total     Imperv       Perv      Total       Total     Peak  Runoff
                           Precip      Runon       Evap      Infil     Runoff     Runoff     Runoff      Runoff   Runoff   Coeff
  Subcatchment                 mm         mm         mm         mm         mm         mm         mm    10^6 ltr      LPS
  ------------------------------------------------------------------------------------------------------------------------------
  S1                         0.00       0.00       0.00       0.00       0.00       0.00       0.00        0.00     0.00   0.000
  S2                         0.00       0.00       0.00       0.00       0.00       0.00       0.00        0.00     0.00   0.000
  S3                         0.00       0.00       0.00       0.00       0.00       0.00       0.00        0.00     0.00   0.000
  S4                         0.00       0.00       0.00       0.00       0.00       0.00       0.00        0.00     0.00   0.000
  S5                      1061.54       0.00       0.00       0.00    1061.69       0.00    1061.69      368.94   262.37   1.000
  S6                      1053.22       0.00       0.00       0.00    1053.55       0.00    1053.55      208.08   159.86   1.000
  S7                         0.00       0.00       0.00       0.00       0.00       0.00       0.00        0.00     0.00   0.000
  S8                       216.07       0.00       0.00       0.00     215.42       0.00     215.42      966.17   326.33   0.997
  S9                      1015.28       0.00       0.00       0.00    1015.29       0.00    1015.29      487.34   328.42   1.000
  S10                        0.00       0.00       0.00       0.00       0.00       0.00       0.00        0.00     0.00   0.000
  S11                     1008.24       0.00       0.00       0.00    1008.64       0.00    1008.64      136.17   111.29   1.000
  S12                     1025.22       0.00       0.00       0.00    1025.31       0.00    1025.31      371.68   262.35   1.000
  S13                     1385.10       0.00       0.00       0.00    1385.52       0.00    1385.52      498.79   466.98   1.000
  S14                      618.94       0.00       0.00       0.00     618.53       0.00     618.53      853.57   419.88   0.999
  S15                     1125.81       0.00       0.00       0.00    1125.72       0.00    1125.72      790.82   518.11   1.000
  S16                      668.19       0.00       0.00       0.00     668.21       0.00     668.21      190.44   131.32   1.000
  S17                     1563.56       0.00       0.00       0.00    1564.70       0.00    1564.70      148.65   135.75   1.001
  S18                     1033.18       0.00       0.00       0.00    1033.25       0.00    1033.25      322.89   232.04   1.000
  S19                     1020.98       0.00       0.00       0.00    1021.25       0.00    1021.25      194.04   151.11   1.000
  S20                     1003.45       0.00       0.00       0.00    1004.15       0.00    1004.15       60.25    53.05   1.001
  S22                     1036.22       0.00       0.00       0.00    1036.14       0.00    1036.14      841.87   614.86   1.000
  S25                        0.00       0.00       0.00       0.00       0.00       0.00       0.00        0.00     0.00   0.000
  S26                        0.00       0.00       0.00       0.00       0.00       0.00       0.00        0.00     0.00   0.000
  S27                     1577.49       0.00       0.00       0.00    1578.43       0.00    1578.43      209.14   181.93   1.001
  S28                     1605.11       0.00       0.00       0.00    1605.82       0.00    1605.82      321.17   267.68   1.000
  S29                     1002.11       0.00       0.00       0.00    1002.34       0.00    1002.34      218.01   164.26   1.000
  S30                        0.00       0.00       0.00       0.00       0.00       0.00       0.00        0.00     0.00   0.000
  S31                        0.00       0.00       0.00       0.00       0.00       0.00       0.00        0.00     0.00   0.000
  S32                     1103.74       0.00       0.00       0.00    1103.95       0.00    1103.95      314.63   241.36   1.000
  S33                        0.00       0.00       0.00       0.00       0.00       0.00       0.00        0.00     0.00   0.000
  S34                        0.00       0.00       0.00       0.00       0.00       0.00       0.00        0.00     0.00   0.000
  S35                     1491.27       0.00       0.00       0.00    1494.19       0.00    1494.19       18.68    37.93   1.002
  S36                     1360.47       0.00       0.00       0.00    1360.96       0.00    1360.96      299.41   247.73   1.000
  S37                     1618.01       0.00       0.00       0.00    1619.68       0.00    1619.68       72.89    69.01   1.001
  S38                     1533.04       0.00       0.00       0.00    1533.29       0.00    1533.29      858.65   654.39   1.000
  S39                      951.72       0.00       0.00       0.00     952.92       0.00     952.92       19.06    28.41   1.001
  S40                      945.64       0.00       0.00       0.00     946.59       0.00     946.59       30.76    37.19   1.001
  S41                     1487.62       0.00       0.00       0.00    1489.16       0.00    1489.16       85.63   127.32   1.001
  S42                     1569.01       0.00       0.00       0.00    1570.32       0.00    1570.32      113.85   106.11   1.001
  S43                        0.00       0.00       0.00       0.00       0.00       0.00       0.00        0.00     0.00   0.000
  S44                      950.09       0.00       0.00       0.00     951.01       0.00     951.01       33.29    41.86   1.001
  S45                        0.00       0.00       0.00       0.00       0.00       0.00       0.00        0.00     0.00   0.000
  S46                        0.00       0.00       0.00       0.00       0.00       0.00       0.00        0.00     0.00   0.000
  S47                     1552.78       0.00       0.00       0.00    1554.75       0.00    1554.75       54.42    81.23   1.001
  S48                     1150.07       0.00       0.00       0.00    1149.95       0.00    1149.95     1129.83   806.26   1.000
  S49                      399.10       0.00       0.00       0.00     399.20       0.00     399.20       27.94    21.08   1.000
  S52                     1517.43       0.00       0.00       0.00    1517.72       0.00    1517.72      774.04   613.88   1.000
  S53                     1468.95       0.00       0.00       0.00    1470.81       0.00    1470.81       51.48    71.41   1.001
  S56                     1473.00       0.00       0.00       0.00    1474.40       0.00    1474.40       99.52   136.46   1.001
  S57                        0.00       0.00       0.00       0.00       0.00       0.00       0.00        0.00     0.00   0.000
  S58                        0.00       0.00       0.00       0.00       0.00       0.00       0.00        0.00     0.00   0.000
  S59                        0.00       0.00       0.00       0.00       0.00       0.00       0.00        0.00     0.00   0.000
  S60                     1504.70       0.00       0.00       0.00    1506.45       0.00    1506.45       75.32   138.91   1.001
  S61                        0.00       0.00       0.00       0.00       0.00       0.00       0.00        0.00     0.00   0.000
  S62                      939.58       0.00       0.00       0.00     940.44       0.00     940.44       37.62    41.22   1.001
  S63                        0.00       0.00       0.00       0.00       0.00       0.00       0.00        0.00     0.00   0.000
  S64                     1484.89       0.00       0.00       0.00    1486.70       0.00    1486.70       74.34   156.77   1.001
  S65                        0.00       0.00       0.00       0.00       0.00       0.00       0.00        0.00     0.00   0.000
  S66                        0.00       0.00       0.00       0.00       0.00       0.00       0.00        0.00     0.00   0.000
  S67                     1485.51       0.00       0.00       0.00    1486.30       0.00    1486.30      282.40   314.29   1.001
  S68                      965.66       0.00       0.00       0.00     966.73       0.00     966.73       26.59    41.15   1.001
  S69                        0.00       0.00       0.00       0.00       0.00       0.00       0.00        0.00     0.00   0.000
  S71                        0.00       0.00       0.00       0.00       0.00       0.00       0.00        0.00     0.00   0.000
  S72                     1474.54       0.00       0.00       0.00    1476.95       0.00    1476.95       36.92    88.50   1.002
  S73                        0.00       0.00       0.00       0.00       0.00       0.00       0.00        0.00     0.00   0.000
  S74                        0.00       0.00       0.00       0.00       0.00       0.00       0.00        0.00     0.00   0.000
  S75                      942.01       0.00       0.00       0.00     942.06       0.00     942.06      435.71   351.02   1.000
  S76                        0.00       0.00       0.00       0.00       0.00       0.00       0.00        0.00     0.00   0.000
  S77                     1455.19       0.00       0.00       0.00    1455.74       0.00    1455.74      444.00   473.84   1.000
  S78                        0.00       0.00       0.00       0.00       0.00       0.00       0.00        0.00     0.00   0.000
  S79                     1463.87       0.00       0.00       0.00    1465.07       0.00    1465.07      135.52   170.59   1.001
  S80                        0.00       0.00       0.00       0.00       0.00       0.00       0.00        0.00     0.00   0.000
  S81                     1241.24       0.00       0.00       0.00    1241.14       0.00    1241.14     1194.60   911.30   1.000
  S82                      922.29       0.00       0.00       0.00     922.77       0.00     922.77      103.81    92.49   1.001
  S83                        0.00       0.00       0.00       0.00       0.00       0.00       0.00        0.00     0.00   0.000
  S84                        0.00       0.00       0.00       0.00       0.00       0.00       0.00        0.00     0.00   0.000
  S85                        0.00       0.00       0.00       0.00       0.00       0.00       0.00        0.00     0.00   0.000
  S86                        0.00       0.00       0.00       0.00       0.00       0.00       0.00        0.00     0.00   0.000
  S92                        0.00       0.00       0.00       0.00       0.00       0.00       0.00        0.00     0.00   0.000
  S95                        0.00       0.00       0.00       0.00       0.00       0.00       0.00        0.00     0.00   0.000
  S96                        0.00       0.00       0.00       0.00       0.00       0.00       0.00        0.00     0.00   0.000
  S97                        0.00       0.00       0.00       0.00       0.00       0.00       0.00        0.00     0.00   0.000
  S99                      921.14       0.00       0.00       0.00     921.83       0.00     921.83       55.31    52.93   1.001
  S100                       0.00       0.00       0.00       0.00       0.00       0.00       0.00        0.00     0.00   0.000
  S101                    1586.10       0.00       0.00       0.00    1587.15       0.00    1587.15      198.39   191.87   1.001
  S102                    1436.94       0.00       0.00       0.00    1438.07       0.00    1438.07      143.81   153.40   1.001
  S103                       0.00       0.00       0.00       0.00       0.00       0.00       0.00        0.00     0.00   0.000
  S104                       0.00       0.00       0.00       0.00       0.00       0.00       0.00        0.00     0.00   0.000
  S105                     913.91       0.00       0.00       0.00     915.03       0.00     915.03       20.59    23.34   1.001
  S106                       0.00       0.00       0.00       0.00       0.00       0.00       0.00        0.00     0.00   0.000
  S107                    1465.45       0.00       0.00       0.00    1466.49       0.00    1466.49      179.65   219.28   1.001
  S108                       0.00       0.00       0.00       0.00       0.00       0.00       0.00        0.00     0.00   0.000
  S109                     929.29       0.00       0.00       0.00     929.88       0.00     929.88       74.39    70.65   1.001
  S110                       0.00       0.00       0.00       0.00       0.00       0.00       0.00        0.00     0.00   0.000
  S111                       0.00       0.00       0.00       0.00       0.00       0.00       0.00        0.00     0.00   0.000
  S112                     691.74       0.00       0.00       0.00     691.70       0.00     691.70      307.81   284.34   1.000
  S113                       0.00       0.00       0.00       0.00       0.00       0.00       0.00        0.00     0.00   0.000
  S114                       0.00       0.00       0.00       0.00       0.00       0.00       0.00        0.00     0.00   0.000
  S115                       0.00       0.00       0.00       0.00       0.00       0.00       0.00        0.00     0.00   0.000
  S117                       0.00       0.00       0.00       0.00       0.00       0.00       0.00        0.00     0.00   0.000
  S118                       0.00       0.00       0.00       0.00       0.00       0.00       0.00        0.00     0.00   0.000
  S119                    1437.64       0.00       0.00       0.00    1439.56       0.00    1439.56       46.79    62.72   1.001
  S120                    1450.27       0.00       0.00       0.00    1451.47       0.00    1451.47      127.00   130.09   1.001
  S121                     997.28       0.00       0.00       0.00     997.50       0.00     997.50      294.26   259.37   1.000
  S122                       0.00       0.00       0.00       0.00       0.00       0.00       0.00        0.00     0.00   0.000
  S123                       0.00       0.00       0.00       0.00       0.00       0.00       0.00        0.00     0.00   0.000
  S124                       0.00       0.00       0.00       0.00       0.00       0.00       0.00        0.00     0.00   0.000
  S125                       0.00       0.00       0.00       0.00       0.00       0.00       0.00        0.00     0.00   0.000
  S126                       0.00       0.00       0.00       0.00       0.00       0.00       0.00        0.00     0.00   0.000
  S127                    1470.47       0.00       0.00       0.00    1472.21       0.00    1472.21       66.25   115.80   1.001
  S128                       0.00       0.00       0.00       0.00       0.00       0.00       0.00        0.00     0.00   0.000
  S129                       0.00       0.00       0.00       0.00       0.00       0.00       0.00        0.00     0.00   0.000
  S130                       0.00       0.00       0.00       0.00       0.00       0.00       0.00        0.00     0.00   0.000
  S131                    1272.83       0.00       0.00       0.00    1272.46       0.00    1272.46     2198.18  1276.91   1.000
  S132                    1428.17       0.00       0.00       0.00    1430.30       0.00    1430.30       35.76    43.33   1.001
  S133                     910.45       0.00       0.00       0.00     911.03       0.00     911.03       75.16    71.35   1.001
  S134                     906.76       0.00       0.00       0.00     907.73       0.00     907.73       27.23    28.56   1.001
  S135                       0.00       0.00       0.00       0.00       0.00       0.00       0.00        0.00     0.00   0.000
  S136                       0.00       0.00       0.00       0.00       0.00       0.00       0.00        0.00     0.00   0.000
  S137                    1430.27       0.00       0.00       0.00    1430.76       0.00    1430.76      468.58   406.90   1.000
  S138                       0.00       0.00       0.00       0.00       0.00       0.00       0.00        0.00     0.00   0.000
  S139                       0.00       0.00       0.00       0.00       0.00       0.00       0.00        0.00     0.00   0.000
  S140                       0.00       0.00       0.00       0.00       0.00       0.00       0.00        0.00     0.00   0.000
  S141                       0.00       0.00       0.00       0.00       0.00       0.00       0.00        0.00     0.00   0.000
  S142                       0.00       0.00       0.00       0.00       0.00       0.00       0.00        0.00     0.00   0.000
  S143                       0.00       0.00       0.00       0.00       0.00       0.00       0.00        0.00     0.00   0.000
  S144                       0.00       0.00       0.00       0.00       0.00       0.00       0.00        0.00     0.00   0.000
  S145                    1502.98       0.00       0.00       0.00    1504.24       0.00    1504.24      135.38   180.32   1.001
  S146                       0.00       0.00       0.00       0.00       0.00       0.00       0.00        0.00     0.00   0.000
  S147                     202.41       0.00       0.00       0.00     202.33       0.00     202.33       41.98    27.16   1.000
  S148                       0.00       0.00       0.00       0.00       0.00       0.00       0.00        0.00     0.00   0.000
  S149                       0.00       0.00       0.00       0.00       0.00       0.00       0.00        0.00     0.00   0.000
  S150                       0.00       0.00       0.00       0.00       0.00       0.00       0.00        0.00     0.00   0.000
  S151                       0.00       0.00       0.00       0.00       0.00       0.00       0.00        0.00     0.00   0.000
  S152                       0.00       0.00       0.00       0.00       0.00       0.00       0.00        0.00     0.00   0.000
  S153                       0.00       0.00       0.00       0.00       0.00       0.00       0.00        0.00     0.00   0.000
  S154                     909.54       0.00       0.00       0.00     910.01       0.00     910.01      100.10    91.85   1.001
  S155                       0.00       0.00       0.00       0.00       0.00       0.00       0.00        0.00     0.00   0.000
  S156                       0.00       0.00       0.00       0.00       0.00       0.00       0.00        0.00     0.00   0.000
  S157                       0.00       0.00       0.00       0.00       0.00       0.00       0.00        0.00     0.00   0.000
  S158                       0.00       0.00       0.00       0.00       0.00       0.00       0.00        0.00     0.00   0.000
  S159                    1458.54       0.00       0.00       0.00    1459.66       0.00    1459.66      149.62   175.60   1.001
  S160                       0.00       0.00       0.00       0.00       0.00       0.00       0.00        0.00     0.00   0.000
  S161                       0.00       0.00       0.00       0.00       0.00       0.00       0.00        0.00     0.00   0.000
  S162                       0.00       0.00       0.00       0.00       0.00       0.00       0.00        0.00     0.00   0.000
  S163                    1275.49       0.00       0.00       0.00    1276.37       0.00    1276.37      143.59   137.99   1.001
  S164                       0.00       0.00       0.00       0.00       0.00       0.00       0.00        0.00     0.00   0.000
  S165                    1417.47       0.00       0.00       0.00    1418.39       0.00    1418.39      198.58   188.35   1.001
  S166                    1456.65       0.00       0.00       0.00    1457.85       0.00    1457.85      127.56   150.90   1.001
  S167                       0.00       0.00       0.00       0.00       0.00       0.00       0.00        0.00     0.00   0.000
  S168                       0.00       0.00       0.00       0.00       0.00       0.00       0.00        0.00     0.00   0.000
  S169                    1440.34       0.00       0.00       0.00    1442.07       0.00    1442.07       57.68    73.87   1.001
  S170                       0.00       0.00       0.00       0.00       0.00       0.00       0.00        0.00     0.00   0.000
  S171                       0.00       0.00       0.00       0.00       0.00       0.00       0.00        0.00     0.00   0.000
  S173                       0.00       0.00       0.00       0.00       0.00       0.00       0.00        0.00     0.00   0.000
  S174                       0.00       0.00       0.00       0.00       0.00       0.00       0.00        0.00     0.00   0.000
  S175                     921.04       0.00       0.00       0.00     921.43       0.00     921.43      135.91   118.21   1.000
  S177                       0.00       0.00       0.00       0.00       0.00       0.00       0.00        0.00     0.00   0.000
  S181                       0.00       0.00       0.00       0.00       0.00       0.00       0.00        0.00     0.00   0.000
  S182                       0.00       0.00       0.00       0.00       0.00       0.00       0.00        0.00     0.00   0.000
  S183                       0.00       0.00       0.00       0.00       0.00       0.00       0.00        0.00     0.00   0.000
  S184                       0.00       0.00       0.00       0.00       0.00       0.00       0.00        0.00     0.00   0.000
  S185                    1413.15       0.00       0.00       0.00    1412.97       0.00    1412.97     1971.10  1311.86   1.000
  S186                       0.00       0.00       0.00       0.00       0.00       0.00       0.00        0.00     0.00   0.000
  S187                    1445.01       0.00       0.00       0.00    1445.91       0.00    1445.91      213.27   222.36   1.001
  S189                       0.00       0.00       0.00       0.00       0.00       0.00       0.00        0.00     0.00   0.000
  S190                       0.00       0.00       0.00       0.00       0.00       0.00       0.00        0.00     0.00   0.000
  S191                       0.00       0.00       0.00       0.00       0.00       0.00       0.00        0.00     0.00   0.000
  S193                    1402.44       0.00       0.00       0.00    1403.28       0.00    1403.28      231.54   222.67   1.001
  S194                       0.00       0.00       0.00       0.00       0.00       0.00       0.00        0.00     0.00   0.000
  S197                       0.00       0.00       0.00       0.00       0.00       0.00       0.00        0.00     0.00   0.000
  S198                       0.00       0.00       0.00       0.00       0.00       0.00       0.00        0.00     0.00   0.000
  S199                    1393.03       0.00       0.00       0.00    1394.60       0.00    1394.60       69.73    75.98   1.001
  S200                       0.00       0.00       0.00       0.00       0.00       0.00       0.00        0.00     0.00   0.000
  S201                       0.00       0.00       0.00       0.00       0.00       0.00       0.00        0.00     0.00   0.000
  S202                       0.00       0.00       0.00       0.00       0.00       0.00       0.00        0.00     0.00   0.000
  S203                       0.00       0.00       0.00       0.00       0.00       0.00       0.00        0.00     0.00   0.000
  S204                       0.00       0.00       0.00       0.00       0.00       0.00       0.00        0.00     0.00   0.000
  S205                       0.00       0.00       0.00       0.00       0.00       0.00       0.00        0.00     0.00   0.000
  S206                       0.00       0.00       0.00       0.00       0.00       0.00       0.00        0.00     0.00   0.000
  S207                       0.00       0.00       0.00       0.00       0.00       0.00       0.00        0.00     0.00   0.000
  S208                       0.00       0.00       0.00       0.00       0.00       0.00       0.00        0.00     0.00   0.000
  S210                       0.00       0.00       0.00       0.00       0.00       0.00       0.00        0.00     0.00   0.000
  S211                       0.00       0.00       0.00       0.00       0.00       0.00       0.00        0.00     0.00   0.000
  S212                       0.00       0.00       0.00       0.00       0.00       0.00       0.00        0.00     0.00   0.000
  S213                    1377.53       0.00       0.00       0.00    1379.22       0.00    1379.22       58.62    66.27   1.001
  S214                       0.00       0.00       0.00       0.00       0.00       0.00       0.00        0.00     0.00   0.000
  S215                       0.00       0.00       0.00       0.00       0.00       0.00       0.00        0.00     0.00   0.000
  S216                       0.00       0.00       0.00       0.00       0.00       0.00       0.00        0.00     0.00   0.000
  S217                       0.00       0.00       0.00       0.00       0.00       0.00       0.00        0.00     0.00   0.000
  S218                       0.00       0.00       0.00       0.00       0.00       0.00       0.00        0.00     0.00   0.000
  S221                       0.00       0.00       0.00       0.00       0.00       0.00       0.00        0.00     0.00   0.000
  S222                    1286.14       0.00       0.00       0.00    1286.36       0.00    1286.36      668.91   532.59   1.000
  S223                    1391.62       0.00       0.00       0.00    1393.22       0.00    1393.22       66.18    72.38   1.001
  S226                       0.00       0.00       0.00       0.00       0.00       0.00       0.00        0.00     0.00   0.000
  S227                       0.00       0.00       0.00       0.00       0.00       0.00       0.00        0.00     0.00   0.000
  S228                    1370.05       0.00       0.00       0.00    1373.16       0.00    1373.16       13.73    18.36   1.002
  S229                    1413.45       0.00       0.00       0.00    1415.78       0.00    1415.78       28.32    37.87   1.002
  S230                       0.00       0.00       0.00       0.00       0.00       0.00       0.00        0.00     0.00   0.000
  S231                       0.00       0.00       0.00       0.00       0.00       0.00       0.00        0.00     0.00   0.000
  S232                       0.00       0.00       0.00       0.00       0.00       0.00       0.00        0.00     0.00   0.000
  S233                       0.00       0.00       0.00       0.00       0.00       0.00       0.00        0.00     0.00   0.000
  S234                       0.00       0.00       0.00       0.00       0.00       0.00       0.00        0.00     0.00   0.000
  S235                       0.00       0.00       0.00       0.00       0.00       0.00       0.00        0.00     0.00   0.000
  S236                       0.00       0.00       0.00       0.00       0.00       0.00       0.00        0.00     0.00   0.000
  S237                    1398.85       0.00       0.00       0.00    1399.62       0.00    1399.62      258.93   244.27   1.001
  S238                       0.00       0.00       0.00       0.00       0.00       0.00       0.00        0.00     0.00   0.000
  S239                       0.00       0.00       0.00       0.00       0.00       0.00       0.00        0.00     0.00   0.000
  S240                       0.00       0.00       0.00       0.00       0.00       0.00       0.00        0.00     0.00   0.000
  S241                    1374.66       0.00       0.00       0.00    1376.78       0.00    1376.78       34.42    40.05   1.002
  S242                       0.00       0.00       0.00       0.00       0.00       0.00       0.00        0.00     0.00   0.000
  S243                       0.00       0.00       0.00       0.00       0.00       0.00       0.00        0.00     0.00   0.000
  S244                    1365.56       0.00       0.00       0.00    1366.94       0.00    1366.94       92.27   102.84   1.001
  S245                    1369.60       0.00       0.00       0.00    1371.23       0.00    1371.23       65.13    74.22   1.001
  S246                       0.00       0.00       0.00       0.00       0.00       0.00       0.00        0.00     0.00   0.000
  S247                       0.00       0.00       0.00       0.00       0.00       0.00       0.00        0.00     0.00   0.000
  S248                       0.00       0.00       0.00       0.00       0.00       0.00       0.00        0.00     0.00   0.000
  S249                       0.00       0.00       0.00       0.00       0.00       0.00       0.00        0.00     0.00   0.000
  S250                       0.00       0.00       0.00       0.00       0.00       0.00       0.00        0.00     0.00   0.000
  S251                       0.00       0.00       0.00       0.00       0.00       0.00       0.00        0.00     0.00   0.000
  S252                    1425.46       0.00       0.00       0.00    1426.93       0.00    1426.93       82.05    90.41   1.001
  S253                       0.00       0.00       0.00       0.00       0.00       0.00       0.00        0.00     0.00   0.000
  S254                       0.00       0.00       0.00       0.00       0.00       0.00       0.00        0.00     0.00   0.000
  S255                       0.00       0.00       0.00       0.00       0.00       0.00       0.00        0.00     0.00   0.000
  S256                       0.00       0.00       0.00       0.00       0.00       0.00       0.00        0.00     0.00   0.000
  S257                    1364.67       0.00       0.00       0.00    1365.98       0.00    1365.98      102.45   112.96   1.001
  S258                       0.00       0.00       0.00       0.00       0.00       0.00       0.00        0.00     0.00   0.000
  S259                       0.00       0.00       0.00       0.00       0.00       0.00       0.00        0.00     0.00   0.000
  S260                       0.00       0.00       0.00       0.00       0.00       0.00       0.00        0.00     0.00   0.000
  S261                       0.00       0.00       0.00       0.00       0.00       0.00       0.00        0.00     0.00   0.000
  S262                       0.00       0.00       0.00       0.00       0.00       0.00       0.00        0.00     0.00   0.000
  S263                       0.00       0.00       0.00       0.00       0.00       0.00       0.00        0.00     0.00   0.000
  S264                       0.00       0.00       0.00       0.00       0.00       0.00       0.00        0.00     0.00   0.000
  S265                       0.00       0.00       0.00       0.00       0.00       0.00       0.00        0.00     0.00   0.000
  S266                       0.00       0.00       0.00       0.00       0.00       0.00       0.00        0.00     0.00   0.000
  S267                       0.00       0.00       0.00       0.00       0.00       0.00       0.00        0.00     0.00   0.000
  S268                       0.00       0.00       0.00       0.00       0.00       0.00       0.00        0.00     0.00   0.000
  S269                       0.00       0.00       0.00       0.00       0.00       0.00       0.00        0.00     0.00   0.000
  S270                       0.00       0.00       0.00       0.00       0.00       0.00       0.00        0.00     0.00   0.000
  S271                    1359.91       0.00       0.00       0.00    1361.72       0.00    1361.72       51.06    60.01   1.001
  S272                       0.00       0.00       0.00       0.00       0.00       0.00       0.00        0.00     0.00   0.000
  S273                       0.00       0.00       0.00       0.00       0.00       0.00       0.00        0.00     0.00   0.000
  
  
  ******************
  Node Depth Summary
  ******************
  
  ---------------------------------------------------------------------------------
                                 Average  Maximum  Maximum  Time of Max    Reported
                                   Depth    Depth      HGL   Occurrence   Max Depth
  Node                 Type       Meters   Meters   Meters  days hr:min      Meters
  ---------------------------------------------------------------------------------
  0                    JUNCTION     0.00     0.00  1872.50     0  00:00        0.00
  1                    JUNCTION     0.00     0.00  1762.50     0  00:00        0.00
  2                    JUNCTION     0.00     0.00  1680.00     0  00:00        0.00
  3                    JUNCTION     1.72   201.00  1633.50   168  20:06       54.71
  4                    JUNCTION     0.02     0.10  1955.10   259  03:00        0.10
  5                    JUNCTION     0.06     0.27  1817.77   259  03:17        0.27
  6                    JUNCTION     6.06   170.67  1520.67   239  03:58      137.21
  7                    JUNCTION     1.80    34.26  1659.26   259  02:22       28.98
  8                    JUNCTION     1.80    34.31  1659.31   259  02:22       29.01
  9                    JUNCTION     1.79    33.85  1658.85   259  02:22       28.51
  10                   JUNCTION     1.80    34.17  1659.17   259  02:22       28.86
  11                   JUNCTION     0.08     0.35  1927.85   259  03:04        0.35
  12                   JUNCTION     0.04     0.24  1762.74   262  21:03        0.24
  13                   JUNCTION     0.08     0.27  1515.27   237  07:02        0.27
  14                   JUNCTION     8.59   170.02  1492.52   239  03:58      164.75
  15                   JUNCTION     8.57   169.95  1492.45   239  03:58      164.66
  16                   JUNCTION     8.44   169.09  1491.59   239  03:58      164.31
  17                   JUNCTION     0.06     0.23  1790.23   259  03:01        0.23
  18                   JUNCTION     0.16     0.50  1625.50   259  03:21        0.49
  19                   JUNCTION     0.16     0.52  1763.02   259  03:10        0.52
  20                   JUNCTION     0.00     0.01  1790.01   227  18:00        0.01
  21                   JUNCTION     0.05     0.23  1707.73   262  21:02        0.23
  22                   JUNCTION     0.04     0.17  1762.67   259  03:11        0.17
  23                   JUNCTION     0.00     0.00  1790.00   272  22:18        0.00
  24                   JUNCTION     0.32     1.52  1709.02   259  03:44        1.51
  25                   JUNCTION     0.02     0.10  1735.10   259  03:05        0.10
  26                   JUNCTION     0.65    18.65  1506.15   259  03:07       17.97
  27                   JUNCTION     0.06     0.19  1515.19   259  03:14        0.18
  28                   JUNCTION     0.03     0.13  1625.13   259  03:06        0.12
  29                   JUNCTION     0.32     1.52  1709.02   259  03:44        1.51
  30                   JUNCTION     0.00     0.01  1735.01   259  03:05        0.01
  31                   JUNCTION    16.60   201.00  1468.50   163  19:45      201.00
  32                   JUNCTION    16.59   201.00  1468.50   163  19:45      201.00
  33                   JUNCTION     0.16    13.52  1501.02   259  03:07       12.96
  34                   JUNCTION     0.01     0.07  1515.07   262  19:00        0.07
  35                   JUNCTION    16.60   201.00  1468.50   163  19:45      201.00
  36                   JUNCTION    16.58   201.00  1468.50   163  19:45      201.00
  37                   JUNCTION    16.58   201.00  1468.50   163  19:45      201.00
  38                   JUNCTION     0.15     6.14  1686.14     2  09:04        0.49
  39                   JUNCTION     0.05     0.19  1707.69   259  03:34        0.18
  40                   JUNCTION    16.56   201.00  1468.50   163  19:57      201.00
  41                   JUNCTION    16.54   201.00  1468.50   168  20:06      201.00
  42                   JUNCTION     0.78    29.99  1489.99   259  03:06       29.64
  43                   JUNCTION     0.09     7.40  1687.40     2  09:03        0.37
  44                   JUNCTION     0.01     0.05  1707.55   259  03:35        0.05
  45                   JUNCTION     0.23    23.39  1483.39   259  03:04       23.18
  46                   JUNCTION     0.01     0.08  1680.08   262  19:00        0.08
  47                   JUNCTION     0.06     0.25  1570.25   262  21:00        0.25
  48                   JUNCTION     0.23     0.98  1625.98   262  21:11        0.97
  49                   JUNCTION     0.23     0.98  1625.98   262  21:11        0.97
  50                   JUNCTION     0.00     0.05  1652.55   262  19:11        0.04
  51                   JUNCTION    15.16   201.00  1468.50   168  20:39      201.00
  52                   JUNCTION    15.10   201.00  1468.50   227  17:55      201.00
  53                   JUNCTION     0.23     0.98  1625.98   262  21:11        0.97
  54                   JUNCTION     0.23     0.98  1625.98   262  21:11        0.97
  55                   JUNCTION    15.10   201.00  1468.50   168  21:54      201.00
  56                   JUNCTION    15.04   201.00  1468.50   227  18:24      201.00
  57                   JUNCTION     0.33    12.71  1610.21     2  09:18        1.75
  58                   JUNCTION     0.05     0.39  1625.39     2  09:18        0.20
  59                   JUNCTION     0.23     0.98  1625.98   262  21:11        0.97
  60                   JUNCTION     0.23     0.98  1625.98   262  21:11        0.97
  61                   JUNCTION     0.30     7.69  1605.19     2  09:18        1.37
  62                   JUNCTION     0.00     0.07  1625.07     2  09:18        0.03
  63                   JUNCTION     0.23     0.98  1625.98   262  21:11        0.97
  64                   JUNCTION     0.23     0.98  1625.98   262  21:11        0.97
  65                   JUNCTION     0.23     0.98  1625.98   262  21:11        0.97
  66                   JUNCTION    13.96   201.00  1468.50   227  18:24      201.00
  67                   JUNCTION     0.42    12.62  1582.62     2  09:18        4.05
  68                   JUNCTION     0.05     0.39  1597.89     2  09:18        0.21
  69                   JUNCTION     0.07     0.30  1597.80   262  21:06        0.30
  70                   JUNCTION     0.23     0.98  1625.98   262  21:11        0.97
  71                   JUNCTION     0.23     0.98  1625.98   262  21:11        0.97
  72                   JUNCTION    13.58   201.00  1468.50   237  05:57      201.00
  73                   JUNCTION    13.49   201.00  1468.50   227  18:24      201.00
  74                   JUNCTION     0.40     7.63  1577.63     2  09:18        3.54
  75                   JUNCTION     0.00     0.07  1597.57     2  09:09        0.03
  76                   JUNCTION     0.56    11.55  1581.55   262  21:00       11.55
  77                   JUNCTION     0.01     0.04  1597.54   262  21:07        0.04
  78                   JUNCTION     0.07     0.39  1652.89   262  21:07        0.39
  79                   JUNCTION    13.49   201.00  1468.50   227  18:24      201.00
  80                   JUNCTION    13.39   201.00  1468.50   227  18:24      201.00
  81                   JUNCTION     0.40     8.36  1550.86     2  09:07        3.48
  82                   JUNCTION     0.07     0.39  1570.39     2  09:18        0.29
  83                   JUNCTION    12.35   200.73  1468.23   259  03:04      200.71
  84                   JUNCTION     0.10     0.57  1543.07     2  09:11        0.44
  85                   JUNCTION     0.01     0.07  1570.07     2  09:10        0.05
  86                   JUNCTION     0.58     8.88  1496.38   262  20:53        8.24
  87                   JUNCTION     0.07     0.30  1515.30   262  21:02        0.30
  88                   JUNCTION     0.42     4.42  1574.42   262  20:52        4.23
  89                   JUNCTION     0.53     7.00  1494.50   262  20:53        6.27
  90                   JUNCTION     0.01     0.05  1515.05   262  21:02        0.05
  91                   JUNCTION     0.12     0.84  1570.84   262  21:15        0.71
  92                   JUNCTION     0.29     2.17  1627.17   262  21:07        2.15
  93                   JUNCTION     0.01     0.08  1652.58   262  21:08        0.08
  94                   JUNCTION     0.07     0.37  1625.37   262  21:06        0.37
  95                   JUNCTION     0.51    27.29  1487.29   262  21:18       26.67
  96                   JUNCTION     0.07     0.58  1488.08   262  21:17        0.41
  97                   JUNCTION     0.26     0.96  1378.46   259  03:16        0.95
  98                   JUNCTION     0.00     0.00  1405.00   259  03:06        0.00
  99                   JUNCTION     0.45    25.85  1485.85   262  21:16       24.89
  100                  JUNCTION     0.03     0.18  1487.68   262  21:16        0.17
  101                  JUNCTION     0.12     0.56  1625.56   262  21:00        0.56
  102                  JUNCTION     0.26     0.96  1378.46   259  03:16        0.95
  103                  JUNCTION     0.00     0.00  1405.00   249  02:52        0.00
  104                  JUNCTION     0.09    22.96  1482.96   262  21:16       21.78
  105                  JUNCTION     0.14    18.12  1560.62   262  21:12       16.98
  106                  JUNCTION     0.04     0.22  1625.22   262  21:00        0.22
  107                  JUNCTION     0.40     5.19  1410.19     2  09:19        3.27
  108                  JUNCTION     0.07     0.37  1432.87     2  09:12        0.31
  109                  JUNCTION     0.84    49.60  1482.10   262  21:16       48.35
  110                  JUNCTION     0.24     1.79  1599.29   262  21:00        1.79
  111                  JUNCTION     0.02     0.12  1570.12   262  21:00        0.12
  112                  JUNCTION     0.11     0.62  1405.62     2  09:13        0.51
  113                  JUNCTION     0.02     0.12  1432.62     2  09:13        0.10
  114                  JUNCTION     0.22     0.77  1350.77   259  03:17        0.76
  115                  JUNCTION     0.04     0.15  1377.65   259  03:16        0.15
  116                  JUNCTION     0.01    21.45  1481.45   262  21:16       20.15
  117                  JUNCTION     0.00     0.08  1570.08   262  21:17        0.06
  118                  JUNCTION     0.00     0.06  1625.06   262  19:01        0.06
  119                  JUNCTION     0.09     0.59  1405.59   259  04:07        0.59
  120                  JUNCTION     0.04     0.18  1405.18   259  03:15        0.18
  121                  JUNCTION     0.06     0.27  1350.27   259  03:23        0.26
  122                  JUNCTION     0.00     0.02  1377.52   259  03:17        0.02
  123                  JUNCTION     0.72    48.10  1480.60   262  21:16       46.72
  124                  JUNCTION     0.21     1.16  1598.66   262  21:02        1.16
  125                  JUNCTION     0.09     0.60  1543.10   262  21:27        0.47
  126                  JUNCTION     0.04     0.26  1597.76   262  19:15        0.26
  127                  JUNCTION     0.04     0.17  1377.67   259  03:18        0.17
  128                  JUNCTION     0.00     0.01  1570.01   262  21:25        0.00
  129                  JUNCTION     0.17     0.57  1488.07   262  21:05        0.57
  130                  JUNCTION     7.65   201.00  1441.00   259  02:48      201.00
  131                  JUNCTION     7.14   197.70  1437.70   259  02:59      197.68
  132                  JUNCTION     0.71    25.10  1347.60     2  09:20       16.37
  133                  JUNCTION     0.07     0.55  1350.55     2  09:20        0.33
  134                  JUNCTION     0.08     0.50  1543.00   262  21:30        0.41
  135                  JUNCTION     7.14   197.57  1437.57   262  21:10      197.55
  136                  JUNCTION     6.63   194.13  1434.13   262  21:10      194.12
  137                  JUNCTION     6.05   189.22  1429.22   262  21:10      189.21
  138                  JUNCTION     0.64    20.76  1343.26     2  09:20       13.26
  139                  JUNCTION     0.01     0.10  1350.10     2  09:20        0.05
  140                  JUNCTION     0.22    36.10  1468.60   262  21:15       33.65
  141                  JUNCTION     0.13    27.45  1487.45   262  21:18       25.02
  142                  JUNCTION     0.01     0.13  1542.63   262  21:31        0.11
  143                  JUNCTION     0.05     0.31  1542.81   262  21:00        0.30
  144                  JUNCTION     0.04     0.26  1570.26   262  21:00        0.26
  145                  JUNCTION     0.06     0.37  1570.37   262  21:08        0.37
  146                  JUNCTION     0.02     0.13  1625.13   262  21:17        0.13
  147                  JUNCTION     0.05     0.25  1487.75   262  21:16        0.25
  148                  JUNCTION     6.05   189.22  1429.22   262  21:10      189.21
  149                  JUNCTION     6.63   201.00  1413.50   259  02:47      201.00
  150                  JUNCTION     5.07   184.31  1424.31   259  02:59      184.29
  151                  JUNCTION     0.00     0.03  1542.53   262  21:33        0.02
  152                  JUNCTION     0.18     0.62  1488.12   262  21:11        0.61
  153                  JUNCTION     0.06     8.19  1330.69   259  04:02        4.19
  154                  JUNCTION     0.29     3.95  1518.95   262  21:00        3.94
  155                  JUNCTION     0.15    35.68  1330.68   259  04:02       31.69
  156                  JUNCTION     0.28     3.44  1518.44   262  21:00        3.43
  157                  JUNCTION     0.20     0.73  1488.23   262  21:07        0.73
  158                  JUNCTION     0.20     0.73  1488.23   262  21:07        0.73
  159                  JUNCTION     0.20     0.73  1488.23   262  21:08        0.72
  160                  JUNCTION     0.20     0.73  1488.23   262  21:07        0.73
  161                  JUNCTION     0.39    61.86  1329.36   259  04:02       58.37
  162                  JUNCTION     0.35    61.80  1329.30   259  04:02       58.53
  163                  JUNCTION     0.32    61.72  1329.22   259  04:02       58.34
  164                  JUNCTION     0.49    39.36  1444.36   262  20:32       32.53
  165                  JUNCTION     0.03    12.36  1444.86   262  20:32        5.72
  166                  JUNCTION     0.04     0.24  1515.24   262  19:15        0.24
  167                  JUNCTION     0.48    37.76  1442.76   262  20:32       30.38
  168                  JUNCTION     0.02    11.10  1443.60   262  20:32        4.01
  169                  JUNCTION     0.19     0.70  1488.20   262  22:28        0.69
  170                  JUNCTION     0.19     0.70  1488.20   262  22:28        0.69
  171                  JUNCTION     0.19     0.70  1488.20   262  22:29        0.69
  172                  JUNCTION     0.19     0.70  1488.20   262  22:28        0.69
  173                  JUNCTION     0.19     0.70  1488.20   262  22:29        0.69
  174                  JUNCTION     0.02     0.11  1377.61   262  21:00        0.11
  175                  JUNCTION     0.00     0.00  1432.50     0  00:00        0.00
  176                  JUNCTION     0.68    88.14  1328.14   259  04:02       84.76
  177                  JUNCTION     0.19     0.70  1488.20   262  22:28        0.69
  178                  JUNCTION     0.19     0.70  1488.20   262  22:28        0.69
  179                  JUNCTION     0.19     0.70  1488.20   262  22:29        0.69
  180                  JUNCTION     0.21     0.82  1323.32   262  21:03        0.82
  181                  JUNCTION     0.19     0.70  1488.20   262  22:26        0.69
  182                  JUNCTION     0.19     0.70  1488.20   262  22:29        0.69
  183                  JUNCTION     0.19     0.70  1488.20   262  22:28        0.69
  184                  JUNCTION     5.75   197.40  1382.40   259  03:00      197.39
  185                  JUNCTION     5.50   193.53  1378.53   259  03:00      193.52
  186                  JUNCTION     0.37    26.52  1404.02   262  21:56       25.75
  187                  JUNCTION     0.00     0.99  1405.99   262  21:08        0.91
  188                  JUNCTION     0.19     0.70  1488.20   262  22:27        0.69
  189                  JUNCTION     0.19     0.70  1488.20   262  22:27        0.69
  190                  JUNCTION     0.19     0.70  1488.20   262  22:26        0.69
  191                  JUNCTION     0.00     0.02  1377.52   262  21:02        0.02
  192                  JUNCTION     5.52   194.31  1379.31   259  03:00      194.30
  193                  JUNCTION     5.25   189.67  1374.67   259  03:00      189.65
  194                  JUNCTION     0.32    22.48  1399.98   262  21:56       18.62
  195                  JUNCTION     0.00     0.00  1405.00   262  21:56        0.00
  196                  JUNCTION     0.01     0.08  1322.58   262  21:05        0.08
  197                  JUNCTION     4.20   172.69  1357.69   259  03:00      172.67
  198                  JUNCTION     3.93   168.59  1353.59   259  03:00      168.57
  199                  JUNCTION     0.57    78.60  1373.60   262  21:30       74.96
  200                  JUNCTION     0.06     7.04  1384.54   262  21:40        0.98
  201                  JUNCTION     0.03     0.19  1405.19   262  21:04        0.19
  202                  JUNCTION     0.03     0.20  1432.70   262  21:03        0.20
  203                  JUNCTION     0.05     0.30  1432.80   262  21:04        0.30
  204                  JUNCTION     0.03     0.19  1460.19   262  21:04        0.19
  205                  JUNCTION     0.04     0.22  1487.72   262  21:11        0.22
  206                  JUNCTION     0.04     0.21  1487.71   262  22:18        0.21
  207                  JUNCTION     0.19     0.76  1488.26   262  22:09        0.76
  208                  JUNCTION     0.19     0.84  1295.84   262  22:44        0.82
  209                  JUNCTION     0.19     0.84  1295.84   262  22:44        0.82
  210                  JUNCTION     3.93   168.30  1353.30   259  03:00      168.28
  211                  JUNCTION     3.65   164.00  1349.00   259  04:02      163.90
  212                  JUNCTION     3.38   160.11  1345.11   259  04:02      159.50
  213                  JUNCTION     0.19     0.84  1295.84   262  22:44        0.82
  214                  JUNCTION     0.19     0.84  1295.84   262  22:44        0.82
  215                  JUNCTION     3.37   159.96  1344.96   259  04:02      159.24
  216                  JUNCTION     2.66   155.93  1340.93   259  04:02      154.57
  217                  JUNCTION     4.79   183.42  1340.92   259  04:02      182.07
  218                  JUNCTION     0.80    90.68  1330.68   259  04:02       86.69
  219                  JUNCTION     1.33    95.50  1335.50   259  04:02       91.88
  220                  JUNCTION     0.04     0.19  1460.19   262  21:30        0.19
  221                  JUNCTION     3.87   173.80  1331.30   259  04:02      171.15
  222                  JUNCTION     3.70   171.64  1329.14   259  04:02      168.52
  223                  JUNCTION     1.59   115.87  1328.37   259  04:02      112.06
  224                  JUNCTION     0.70    90.68  1330.68   259  04:02       86.69
  225                  JUNCTION     0.05     0.25  1405.25   262  21:10        0.24
  226                  JUNCTION     0.14     0.80  1295.80   262  22:35        0.72
  227                  JUNCTION     4.79   183.41  1340.91   259  04:02      182.07
  228                  JUNCTION     1.11    90.17  1330.17   259  04:02       86.37
  229                  JUNCTION     0.24    14.83  1337.33   262  21:55       13.74
  230                  JUNCTION     0.03     0.40  1350.40   262  21:55        0.39
  231                  JUNCTION     0.04     0.24  1377.74   262  21:08        0.24
  232                  JUNCTION     0.22     8.94  1331.44   262  21:55        8.36
  233                  JUNCTION     0.00     0.07  1350.07   262  21:55        0.07
  234                  JUNCTION     3.47   162.70  1320.20   259  04:02      160.54
  235                  JUNCTION     6.89   189.66  1319.66   259  04:02      187.39
  236                  JUNCTION     6.25   185.01  1315.01   259  04:02      182.41
  237                  JUNCTION     6.25   184.39  1314.39   259  04:02      181.79
  238                  JUNCTION     6.43   185.66  1315.66   259  04:02      182.92
  239                  JUNCTION     0.03     0.36  1322.86   262  21:55        0.35
  240                  JUNCTION     6.24   182.68  1312.68   259  04:02      180.28
  241                  JUNCTION     5.91   180.23  1310.23   259  04:02      177.84
  242                  JUNCTION     0.24     5.10  1300.10   262  21:11        4.57
  243                  JUNCTION     5.63   176.92  1306.92   259  04:02      174.78
  244                  JUNCTION     5.98   180.19  1310.19   259  04:02      177.81
  245                  JUNCTION     5.86   180.23  1310.23   259  04:02      177.84
  246                  JUNCTION     6.10   180.27  1310.27   259  04:02      177.88
  247                  JUNCTION     6.07   178.50  1308.50   259  04:02      176.17
  248                  JUNCTION     6.14   178.50  1308.50   259  04:02      176.17
  249                  JUNCTION     2.01   122.73  1307.73   259  04:02      120.55
  250                  JUNCTION     0.51    64.60  1304.60   259  04:02       62.93
  251                  JUNCTION     0.07     1.22  1296.22   262  22:00        1.22
  252                  JUNCTION     0.04     0.21  1322.71   262  21:18        0.20
  253                  JUNCTION     0.05     0.22  1322.72   262  21:39        0.22
  254                  JUNCTION     0.03     1.11  1296.11   262  22:02        1.10
  255                  JUNCTION     5.79   173.75  1303.75   259  04:02      171.57
  256                  JUNCTION    22.57   104.48  1206.98   259  03:00      104.47
  257                  JUNCTION     0.59    78.63  1291.13   259  04:03       77.79
  258                  JUNCTION    22.57   104.48  1206.98   259  03:00      104.48
  259                  JUNCTION     3.33   141.58  1271.58   259  04:02      140.36
  260                  JUNCTION     2.27   131.18  1288.68   259  04:02      130.01
  261                  JUNCTION     5.74   157.62  1260.12   259  04:02      156.43
  262                  JUNCTION    16.60   164.31  1239.31   259  04:02      163.14
  263                  JUNCTION     0.06     0.28  1432.78   262  21:32        0.28
  264                  JUNCTION    14.22   128.33  1203.33   259  04:02      127.41
  265                  JUNCTION     1.25   121.53  1251.53   259  04:01      121.52
  266                  JUNCTION     4.16   204.00  1251.50   254  21:47      204.00
  267                  JUNCTION     0.07     0.34  1295.34   262  22:40        0.33
  268                  JUNCTION    16.18    65.27  1085.27   262  22:33       63.04
  269                  JUNCTION    43.51    86.99  1079.49   262  22:31       85.70
  270                  OUTFALL      0.34     1.00  1121.00   168  21:54        1.00
  271                  OUTFALL      0.36     0.96  1080.96   259  04:02        0.96
  272                  OUTFALL      0.11     0.92  1035.92   262  22:31        0.91
  
  
  *******************
  Node Inflow Summary
  *******************
  
  -------------------------------------------------------------------------------------------------
                                  Maximum  Maximum                  Lateral       Total        Flow
                                  Lateral    Total  Time of Max      Inflow      Inflow     Balance
                                   Inflow   Inflow   Occurrence      Volume      Volume       Error
  Node                 Type           LPS      LPS  days hr:min    10^6 ltr    10^6 ltr     Percent
  -------------------------------------------------------------------------------------------------
  0                    JUNCTION      0.00     0.00     0  00:00           0           0       0.000 ltr
  1                    JUNCTION      0.00     0.00     0  00:00           0           0       0.000 ltr
  2                    JUNCTION      0.00     0.00     0  00:00           0           0       0.000 ltr
  3                    JUNCTION      0.00   690.24   239  03:58           0        7.87       0.799
  4                    JUNCTION    263.34   263.34   259  03:00         371         371      -0.012
  5                    JUNCTION    160.76   423.79   259  03:00         210         581      -0.056
  6                    JUNCTION      0.00  1366.19   262  18:48           0        56.3       0.001
  7                    JUNCTION    326.36   379.36   259  03:00         966    1.02e+03      -0.003
  8                    JUNCTION    329.40   442.70   254  21:00         489         603      -0.144
  9                    JUNCTION      0.00   709.40   259  03:00           0     1.6e+03      -0.003
  10                   JUNCTION    112.27   330.11   259  03:00         138         691       0.000
  11                   JUNCTION    263.33   263.33   259  03:00         374         374      -0.007
  12                   JUNCTION    467.05   467.05   262  21:00         499         499      -0.016
  13                   JUNCTION    419.89   419.89   237  07:00         854         854      -0.001
  14                   JUNCTION    518.13   694.75   262  18:48         791         813       0.019
  15                   JUNCTION    131.32   821.83   262  18:33         190         527       0.035
  16                   JUNCTION    135.75  1146.25   262  18:48         149    1.15e+03       0.017
  17                   JUNCTION    233.11   233.11   259  03:00         325         325      -0.000
  18                   JUNCTION    152.15   861.38   259  03:00         196    1.79e+03       0.002
  19                   JUNCTION     53.53   860.20   290  20:05        62.3         496       1.742
  20                   JUNCTION      0.00   261.75   259  03:05           0         374     -13.815
  21                   JUNCTION    615.26   615.26   262  21:00         843         843      -0.003
  22                   JUNCTION      0.00   331.83   259  03:03           0         492      -0.379
  23                   JUNCTION      0.00     0.03   115  13:40           0      0.0105       0.000
  24                   JUNCTION      0.00   310.48   259  03:05           0         489       0.002
  25                   JUNCTION      0.00   314.30   259  03:11           0         494       0.016
  26                   JUNCTION    181.93  1267.42   259  03:10         209    2.31e+03      -0.000
  27                   JUNCTION    267.68  1099.09   259  03:14         321    2.11e+03      -0.000
  28                   JUNCTION    165.21   397.38   259  03:00         220         545      -0.026
  29                   JUNCTION      0.00   301.97   259  03:11           0         493      -0.003
  30                   JUNCTION      0.00     3.71   259  03:05           0        4.44       0.000
  31                   JUNCTION    241.61  1071.06   262  18:48         315    1.46e+03       0.013
  32                   JUNCTION      0.00   458.10   262  18:48           0         644       0.021
  33                   JUNCTION      0.00  1291.18   259  03:10           0    2.34e+03      -0.000
  34                   JUNCTION     37.93    39.48   262  19:00        18.7        25.9       0.000
  35                   JUNCTION    248.09   514.29   262  18:48         300         810       0.000
  36                   JUNCTION     69.01   854.87   262  18:48        72.9    1.47e+03       0.030
  37                   JUNCTION    654.39   654.39   262  21:00         859    1.39e+03       0.013
  38                   JUNCTION     30.30 34827.40     2  09:04          21         523      -0.274
  39                   JUNCTION     38.92   318.78   259  03:34        32.7         526       0.000
  40                   JUNCTION    127.32   370.85   262  18:48        85.6    1.01e+03       0.000
  41                   JUNCTION    106.11   833.00   187  17:52         114    2.37e+03       0.007
  42                   JUNCTION      0.00  1439.57   259  03:10           0    2.65e+03       0.002
  43                   JUNCTION     43.68 70983.90     2  09:03        35.2         584       0.016
  44                   JUNCTION      0.00    20.78   259  03:34           0        24.4       0.000
  45                   JUNCTION      0.00  1439.57   259  03:10           0    2.65e+03       0.005
  46                   JUNCTION     81.23    81.23   262  19:00        54.4        54.4      -0.504
  47                   JUNCTION    806.55   806.55   262  21:00    1.13e+03    1.13e+03      -0.000
  48                   JUNCTION     21.08    27.56   262  21:00        27.9        35.7       0.000
  49                   JUNCTION      0.00    60.00   262  19:11           0          43       0.012
  50                   JUNCTION      0.00    81.07   262  19:00           0        54.7      -1.320
  51                   JUNCTION    613.88   987.35   187  17:52         774    3.13e+03      -0.003
  52                   JUNCTION     71.41   513.97   290  19:06        51.5     1.6e+03       0.003
  53                   JUNCTION      0.00    68.71   262  21:09           0          71       0.003
  54                   JUNCTION      0.00    42.60   262  21:02           0        35.3       0.000
  55                   JUNCTION    136.46   536.33   262  18:48        99.5    1.63e+03       0.000
  56                   JUNCTION      0.00  1007.07   187  17:53           0    3.22e+03      -0.001
  57                   JUNCTION      0.00  1255.64     2  09:18           0         577      -0.008
  58                   JUNCTION      0.00  1335.54     2  09:17           0         584       0.002
  59                   JUNCTION    138.91   138.91   262  19:00        75.3        91.9       0.000
  60                   JUNCTION      0.00    74.43   262  21:00           0        77.6       0.002
  61                   JUNCTION     42.86  1288.78     2  09:18        39.5         623      -0.007
  62                   JUNCTION      0.00    34.97     2  09:18           0        6.45       0.000
  63                   JUNCTION    156.77   184.31   262  21:00        74.3         135      -0.000
  64                   JUNCTION      0.00   170.14   262  21:04           0         146       0.001
  65                   JUNCTION      0.00    71.85   262  21:05           0          61       0.000
[...]
  10                        245.28    245.28    592.77      0.01         0.01
  11                        245.28    245.28    592.15      0.01         0.01
  13                          0.01      0.01    539.37      0.01         0.01
  15                         37.58     37.58    539.37      0.97         1.05
  16                        104.18    539.37    104.18   4770.96       104.18
  17                        209.67    539.37    209.67   4895.83       209.67
  20                        376.22    377.05    376.22   2282.17       357.41
  21                        374.32    377.05    374.43   2970.64       357.58
  22                        374.27    376.22    374.43   2825.56       350.09
  23                       2183.78   2198.03   2183.78   4436.47      2163.01
  24                       2183.78   2183.78   2192.95   3988.45        50.01
  29                          0.01      0.01     18.86      0.01         0.01
  31                       1878.19   1878.19   2232.46   6367.48         0.02
  32                       1671.55   1878.20   1671.55   5668.44      1668.02
  33                          1.74      1.74    420.78      0.01         0.01
  34                         28.16    420.78     28.16   5284.32        28.16
  35                        374.43    374.43   2512.27      0.01         0.01
  36                       2509.84   2512.27   2509.91   3242.93      2332.32
  37                       2510.42   2512.27   2510.48   2916.90      2259.10
  38                          0.01      0.01     10.74      0.01         0.01
  49                          0.01      0.01    405.41      0.01         0.01
  50                          0.01      0.01      0.01     25.43         0.01
  53                          0.01     17.02      0.01   3456.34         0.01
  54                          1.74    260.97      1.74   5179.20         1.74
  55                          0.01      0.01      1.74      0.01         0.01
  56                          0.01     28.16      0.01      2.44         0.01
  57                          0.01      0.01      0.01    161.33         0.01
  58                          0.01      0.01   1465.48      0.01         0.01
  60                          0.01      0.01      0.22      0.01         0.01
  62                       2507.54   2509.91   2507.61   3244.29      2333.33
  63                       2507.53   2507.60   2510.45   3422.45        48.47
  64                       2505.87   2507.64   2506.01   2983.27      2271.89
  65                       2503.07   2507.65   2503.08   3686.57      2395.68
  66                       2498.34   2506.00   2498.34   4038.12      2419.15
  67                       2498.31   2498.32   2503.15   3760.64        30.41
  68                       2262.09   2498.31   2262.09   6447.14      2210.14
  69                          0.01      0.02      0.02      0.02         0.01
  70                          0.01      0.01      0.23      0.01         0.01
  71                          0.01      0.23      0.01      0.01         0.01
  72                       2247.46   2262.09   2247.46   4296.82      2224.35
  73                       2247.76   2262.09   2247.76   4283.53      2222.59
  74                         28.16     28.16    715.64      0.01         0.01
  75                          0.01      0.01     60.65      0.01         0.01
  76                          0.01      0.01      0.01      0.29         0.01
  77                        715.64    715.64   1527.64   6334.98         0.01
  78                        715.64    715.64   2377.71    652.26       656.63
  87                          0.01      0.01    343.30      0.01         0.01
  88                          0.01      0.01      0.01     28.46         0.01
  94                       2232.47   2247.46   2232.47   4328.41      2212.14
  95                       2232.45   2232.45   2247.76   4339.77         1.55
  96                         12.27     60.65     12.27   3073.02        12.27
  97                          0.01      0.01     12.27      0.01         0.01
  98                          0.01     12.27      0.01   3161.62         0.01
  99                          0.01      0.01    160.19      0.01         0.01
  100                         0.01      0.01      0.01      0.29         0.01
  107                         0.01      0.01      0.01     14.25         0.01
  108                       122.91    160.19    122.91   3195.96       122.91
  109                         0.01      0.01    122.91      0.01         0.01
  110                         0.01    122.91      0.01   3945.81         0.01
  111                       151.47    405.41    151.47   4319.67       151.47
  112                         0.01      0.01    405.41      0.01         0.01
  113                         0.01      0.01    151.47      0.01         0.01
  116                      1604.73   1671.55   1604.73   4661.10      1600.68
  117                      1604.73   1671.55   1604.73   4661.10      1600.68
  118                      1527.64   1604.72   1527.64   4660.85      1523.61
  119                      1527.64   1527.64   1604.72   4660.85         0.39
  120                         0.01      0.01    134.14      0.01         0.01
  121                         0.01      0.01      0.01     32.39         0.01
  122                         0.01    151.47      0.01   3903.22         0.01
  123                         0.01     18.86      0.01   2836.52         0.01
  124                         0.01      0.01     18.86      0.01         0.01
  126                         0.01    134.14      0.01   4056.61         0.01
  129                      2174.21   2377.71   2174.21   6072.69      2174.21
  130                      2173.28   2377.71   2173.28   6075.84      2173.28
  131                         0.01      0.01    132.94      0.01         0.01
  133                       218.12    343.30    218.12   3874.02       218.12
  134                         0.01      0.01    218.12      0.01         0.01
  135                         0.01    218.12      0.01   4277.12         0.01
  136                         0.01      0.01      0.86      0.01         0.01
  137                         0.01      0.01      0.01    403.44         0.01
  138                         0.01      0.01    250.63      0.01         0.01
  139                         0.01      0.01      0.01     67.72         0.01
  140                         0.01      0.01      0.86      0.01         0.01
  141                         0.86      0.86      2.68      0.01         0.01
  144                         0.01      0.01      0.01    812.21         0.01
  145                         0.01      0.01      0.01    712.14         0.01
  146                       164.77    250.63    164.77   3870.97       164.77
  147                         0.01      0.01    164.77      0.01         0.01
  148                         3.38    164.77      3.38   4018.42         3.38
  151                         0.01      0.01      0.01   2413.22         0.01
  152                         3.38      3.38    749.36      0.01         0.01
  153                         1.71      3.38      1.71    147.15         1.71
  154                         0.01      0.01     13.11      0.01         0.01
  158                       520.07    749.36    520.07   4444.31       520.07
  159                         1.71      1.71    520.07      0.01         0.01
  160                        18.05    520.07     18.05   4933.77        18.05
  161                         2.68      2.68     18.05      0.01         0.01
  162                         0.01      0.01      2.68      0.01         0.01
  163                         2.49     13.11      2.49   2098.17         2.49
  165                         0.01      2.49      0.01   1886.41         0.01
  166                         0.01    132.94      0.01   4074.75         0.01
  169                         0.01      0.01    518.92      0.01         0.01
  170                         0.01      0.01      0.01     69.32         0.01
  171                         0.01      0.01      0.01   1970.03         0.01
  173                         0.01      0.01    104.18      0.01         0.01
  174                         0.01      0.01      0.01    176.79         0.01
  176                         0.01      0.01      0.01    116.29         0.01
  178                         0.01      0.01      0.01    934.45         0.01
  180                       161.08    161.08    260.10      0.01         0.01
  181                       269.00   1465.48    269.00   7537.98       268.78
  182                       260.09    260.10    260.09    233.63       175.77
  183                       104.18    104.18    132.93      0.01         0.01
  184                        56.85     56.86     56.85     24.23        22.25
  185                        18.05     18.05     37.58      0.11         0.01
  186                         3.46     18.05      3.46   1363.29         3.46
  189                         0.01      0.01      0.50      0.01         0.01
  190                         0.01      0.01     30.33      0.01         0.01
  192                         0.01      0.01      0.01     86.20         0.01
  194                         4.17      4.17    372.64   5040.63         0.01
  195                         0.50      0.50      8.01      0.01         0.01
  196                        30.33     30.33    239.07      0.01         0.01
  197                        30.18     30.33     30.19     40.11        18.86
  198                         0.01      0.01      0.01   1436.60         0.01
  199                         0.01      0.01      0.01   1592.44         0.01
  200                      1889.58   2174.21   1889.58   6078.78      1889.58
  201                      1889.59   1889.59   2173.28   6075.65         0.01
  202                      1375.91   1889.76   1375.91   6128.36      1375.91
  203                      1375.91   1889.76   1375.91   6128.36      1375.91
  204                       372.64    518.92    372.64   4233.76       372.64
  205                         0.01      0.01    372.64      0.01         0.01
  207                         0.01      0.01      0.01     16.40         0.01
  208                       269.58   1375.90    269.58   6112.84       269.58
  209                       269.58    269.58   1375.90   6112.84         0.01
  210                       269.59    269.59    378.23      0.01         0.01
  211                         0.97      0.97     37.58      0.01         0.01
  212                         3.46      3.46    189.67      0.01         0.01
  213                         2.06      3.46      2.06     12.24         2.06
  214                         0.01      0.01     50.94      0.01         0.01
  215                         0.01      0.01     27.66      0.01         0.01
  216                         0.01      0.01     50.94      0.01         0.01
  217                       386.22    386.22   2711.68    334.35       336.03
  218                       386.20    386.20   7874.40    204.98       209.19
  219                        27.66     50.94     27.66   1896.21        27.66
  220                         0.01     27.66      0.01   2484.01         0.01
  224                         0.01      0.01      0.01    807.74         0.01
  225                         0.01      0.01      0.01   1624.33         0.01
  227                         0.01      0.01      0.01     69.41         0.01
  228                      2339.92   2709.92   2339.92   7239.72      2339.92
  229                      2344.75   2709.92   2344.75   7226.22      2344.75
  230                       793.51    793.51   7874.40    169.95       173.20
  231                      7874.40   7874.40   7874.40    812.66      2261.25
  232                        21.91     21.91     30.46      0.01         0.01
  233                         8.01      8.01     56.86      0.01         0.01
  234                        30.19     30.46     30.19    232.89        25.27
  235                        30.45     30.46     46.32      0.01         0.01
  236                       104.11    104.11    132.93      0.01         0.01
  237                       104.11    104.11    209.68   3999.53        42.43
  240                         0.01      0.01      0.01    142.34         0.01
  241                         0.01      0.01      0.01     63.17         0.01
  242                         0.01      0.01      0.01    829.71         0.01
  243                         0.01      0.01      0.01      6.19         0.01
  245                        30.19     30.19     46.32      0.01         0.01
  246                        46.32     46.32   1329.10      0.01         0.01
  247                       239.07    239.07    269.00   2280.53         1.19
  248                       239.07    239.07    997.67      0.01         0.01
  249                       169.39    189.67    169.39   2197.14       169.39
  250                         2.06      2.06    169.39      0.01         0.01
  251                         0.01    169.38      0.01   3043.50         0.01
  253                         0.01      0.01      0.01     23.27         0.01
  255                         0.01      0.01    141.32      0.01         0.01
  256                         0.01      0.01      0.01      3.73         0.01
  265                       132.93    132.94   1329.10      0.01         0.01
  266                      1034.70   1329.10   1034.71   5714.61      1033.25
  267                      1202.73   1329.10   1202.74   5317.53      1201.26
  275                         0.01      0.01      0.01   1703.55         0.01
  277                         0.01      0.01      0.01      0.86         0.01
  282                        82.86    141.03     82.96   3251.95        81.63
  283                         0.01      0.01     84.53      0.01         0.01
  284                         0.97     82.97      0.97   3252.03         0.97
  285                         0.01      0.01      0.01   1537.70         0.01
  286                      2254.16   2339.92   2254.16   7240.09      2254.16
  287                      2254.16   2254.16   2344.75   7252.41         0.01
  288                      1798.52   2254.16   1798.52   7717.53      1798.52
  289                      1637.47   1798.52   1637.47   7245.02      1637.47
  290                      1633.64   1798.52   1633.64   7249.06      1633.64
  291                         0.01      0.97      0.01      0.01         0.01
  292                         0.01      0.01      0.97      0.01         0.01
  296                         0.01      0.01   7126.55      0.01         0.01
  298                         0.01      0.01      0.01    151.59         0.01
  299                      1409.71   1637.47   1409.71   7252.70      1409.71
  300                      1409.71   1409.71   1633.64   7249.21         0.01
  301                      1033.28   1409.71   1033.28   7248.61      1033.28
  302                      1026.25   1409.71   1026.25   7253.36      1026.25
  303                         0.01      0.01     39.95      0.01         0.01
  304                         0.01      0.01      0.01     12.94         0.01
  310                         0.01      0.01      0.01   1739.51         0.01
  311                       180.18   1033.28    180.18   7255.16       180.18
  312                       180.18    180.18   1026.25   7253.44         0.01
  313                       180.18    180.18   1463.83      0.01         0.01
  314                         0.01      0.01     20.94      0.01         0.01
  317                         0.01      0.01      0.01      2.86         0.01
  318                         0.01      0.01      0.01      1.92         0.01
  319                       223.91   1463.83    223.91   7468.96       223.91
  320                       269.00    269.00   1941.85      0.01         0.01
  321                       132.93    132.94    151.24      0.25         0.40
  322                        39.27    209.68     39.27   4112.75        39.27
  323                       223.91    223.91   1941.85      0.01         0.01
  324                      1213.31   1941.85   1213.31   7649.31      1213.31
  325                       817.77    997.67    817.77   5692.56       817.77
  326                       997.59    997.67   1034.71   4053.38       330.84
  327                       151.24    151.24   1202.74      0.01         0.01
  328                       151.11    151.24    155.79      1.55         1.19
  329                        39.27     39.27    151.24      0.01         0.01
  330                         0.01      0.01      0.01      6.50         0.01
  331                         0.53      0.53     41.06      0.01         0.01
  332                         0.53      0.53    262.00      0.01         0.01
  333                         0.01      0.01   7126.55      0.01         0.01
  334                       223.91    223.91    793.51      0.01         0.01
  335                         1.87      1.87     39.27      0.01         0.01
  336                        38.72     39.27     41.06      0.99         0.43
  337                        25.80     39.95     25.80   2031.17        25.80
  338                         0.01      0.01     25.80      0.01         0.01
  339                         0.01     25.80      0.01   2039.79         0.01
  340                         0.01      0.01     20.94      0.01         0.01
  341                         1.87     20.94      1.87   2466.71         1.87
  342                         0.01      0.01      1.87      0.01         0.01
  343                         0.01      0.01   7376.32      0.01         0.01
  344                         0.01      0.01      1.87      0.01         0.01
  345                       793.51    793.51    828.23   6758.41         0.01
  346                       817.77    817.77   1213.31   7384.61         0.07
  347                       564.93    564.94    564.94    360.33       289.80
  348                      1007.65   1034.71   1007.66   3964.90      1007.61
  349                      1046.87   1202.74   1046.87   5106.23      1040.29
  350                      1035.04   1202.74   1035.04   5189.60      1035.03
  351                       828.23   1213.31    828.23   7307.34       828.23
  352                       816.41    828.23    816.41   6826.71       543.66
  353                       816.41    816.41   7886.37     35.72        38.90
  354                       816.41    816.41   1007.66   6660.42        70.50
  355                      1007.65   1007.66   1046.87   4217.84       568.79
  356                       766.75    766.75   7886.37      0.01         0.01
  357                      7886.36   7886.37   7886.36   7763.58      7561.25
  358                      1035.04   1046.87   1035.04   2558.82      1031.35
  359                       388.46   1035.04    388.46   6346.57       388.46
  360                        41.06     41.06    155.79      0.01         0.01
  361                       155.79    155.79    766.75      0.01         0.01
  362                        41.06     41.06     99.84      0.64         0.41
  363                        64.67     64.67    160.74      0.01         0.01
  364                       262.00    262.00   7376.32    128.74       129.15
  365                      7126.55   7126.55   7376.32      0.01         0.01
  366                        99.84    388.46     99.84   1132.64        99.84
  367                       388.46    388.46    766.75      0.01         0.01
  368                        45.75     45.75   7873.56    291.67         0.01
  369                         0.01      0.01   7886.36   1615.78         0.01
  370                         0.01      0.01   7122.63      1.50         0.01
  

  Analysis begun on:  Wed Apr 15 01:40:40 2020
  Analysis ended on:  Wed Apr 15 03:02:32 2020
  Total elapsed time: 01:21:52