
  EPA STORM WATER MANAGEMENT MODEL - VERSION 5.1 (Build 5.1.013)
  --------------------------------------------------------------

  Template input file for Gottesacker karst system.  
  Based on input files created by Zhao Chen. 
  Modified by Chloe Fandel: 
  
  WARNING 08: elevation drop exceeds length for Conduit 2
  WARNING 04: minimum elevation drop used for Conduit 11
  WARNING 04: minimum elevation drop used for Conduit 14
  WARNING 04: minimum elevation drop used for Conduit 16
  WARNING 04: minimum elevation drop used for Conduit 21
  WARNING 04: minimum elevation drop used for Conduit 22
  WARNING 04: minimum elevation drop used for Conduit 25
  
  *********************************************************
  NOTE: The summary statistics displayed in this report are
  based on results found at every computational time step,  
  not just on results from each reporting time step.
  *********************************************************
  
  ****************
  Analysis Options
  ****************
  Flow Units ............... LPS
  Process Models:
    Rainfall/Runoff ........ YES
    RDII ................... NO
    Snowmelt ............... NO
    Groundwater ............ NO
    Flow Routing ........... YES
    Ponding Allowed ........ NO
    Water Quality .......... NO
  Infiltration Method ...... HORTON
  Flow Routing Method ...... DYNWAVE
  Surcharge Method ......... EXTRAN
  Starting Date ............ 11/14/2013 00:00:00
  Ending Date .............. 10/11/2014 00:00:00
  Antecedent Dry Days ...... 0.0
  Report Time Step ......... 01:00:00
  Wet Time Step ............ 00:30:00
  Dry Time Step ............ 01:00:00
  Routing Time Step ........ 30.00 sec
  Variable Time Step ....... YES
  Maximum Trials ........... 8
  Number of Threads ........ 4
  Head Tolerance ........... 0.001524 m
  
  
  **************************        Volume         Depth
  Runoff Quantity Continuity     hectare-m            mm
  **************************     ---------       -------
  Total Precipitation ......      2497.974       770.861
  Evaporation Loss .........         0.000         0.000
  Infiltration Loss ........         0.000         0.000
  Surface Runoff ...........      2494.863       769.901
  Final Storage ............         3.481         1.074
  Continuity Error (%) .....        -0.015
  
  
  **************************        Volume        Volume
  Flow Routing Continuity        hectare-m      10^6 ltr
  **************************     ---------     ---------
  Dry Weather Inflow .......         0.000         0.000
  Wet Weather Inflow .......      2494.852     24948.778
  Groundwater Inflow .......         0.000         0.000
  RDII Inflow ..............         0.000         0.000
  External Inflow ..........         1.825        18.246
  External Outflow .........      4135.979     41360.224
  Flooding Loss ............      1396.542     13965.569
  Evaporation Loss .........         0.000         0.000
  Exfiltration Loss ........         0.000         0.000
  Initial Stored Volume ....         0.000         0.000
  Final Stored Volume ......         0.408         4.077
  Continuity Error (%) .....      -121.612
  
  
  *************************
  Highest Continuity Errors
  *************************
  Node 8 (-455.70%)
  Node 5 (-190.66%)
  Node 10 (2.93%)
  
  
  ***************************
  Time-Step Critical Elements
  ***************************
  Link 29 (99.29%)
  
  
  ********************************
  Highest Flow Instability Indexes
  ********************************
  Link 6 (84)
  Link 7 (77)
  Link 12 (77)
  Link 11 (58)
  Link 4 (44)
  
  
  *************************
  Routing Time Step Summary
  *************************
  Minimum Time Step           :     2.62 sec
  Average Time Step           :    13.14 sec
  Maximum Time Step           :    30.00 sec
  Percent in Steady State     :     0.30
  Average Iterations per Step :     5.15
  Percent Not Converging      :    50.16
  
  
  ***************************
  Subcatchment Runoff Summary
  ***************************
  
  ------------------------------------------------------------------------------------------------------------------------------
                            Total      Total      Total      Total     Imperv       Perv      Total       Total     Peak  Runoff
                           Precip      Runon       Evap      Infil     Runoff     Runoff     Runoff      Runoff   Runoff   Coeff
  Subcatchment                 mm         mm         mm         mm         mm         mm         mm    10^6 ltr      LPS
  ------------------------------------------------------------------------------------------------------------------------------
  S1                         0.00       0.00       0.00       0.00       0.00       0.00       0.00        0.00     0.00   0.000
  S2                         0.00       0.00       0.00       0.00       0.00       0.00       0.00        0.00     0.00   0.000
  S3                         0.00       0.00       0.00       0.00       0.00       0.00       0.00        0.00     0.00   0.000
  S4                         0.00       0.00       0.00       0.00       0.00       0.00       0.00        0.00     0.00   0.000
  S5                      1061.54       0.00       0.00       0.00    1061.69       0.00    1061.69      368.94   262.37   1.000
  S6                      1029.54       0.00       0.00       0.00    1030.00       0.00    1030.00      105.58    87.48   1.000
  S7                      1024.61       0.00       0.00       0.00    1024.82       0.00    1024.82      266.45   198.54   1.000
  S8                      1385.10       0.00       0.00       0.00    1385.52       0.00    1385.52      498.79   466.98   1.000
  S9                      1036.22       0.00       0.00       0.00    1036.14       0.00    1036.14      841.87   614.86   1.000
  S10                     1318.99       0.00       0.00       0.00    1319.66       0.00    1319.66      240.84   252.07   1.001
  S11                     1002.92       0.00       0.00       0.00    1003.18       0.00    1003.18      258.32   258.68   1.000
  S12                      969.60       0.00       0.00       0.00     970.18       0.00     970.18       89.74    98.03   1.001
  S13                      952.56       0.00       0.00       0.00     953.11       0.00     953.11       90.55   104.58   1.001
  S14                     1574.01       0.00       0.00       0.00    1574.39       0.00    1574.39      625.82   478.24   1.000
  S15                        0.00       0.00       0.00       0.00       0.00       0.00       0.00        0.00     0.00   0.000
  S16                     1292.86       0.00       0.00       0.00    1293.18       0.00    1293.18      484.95   498.34   1.000
  S17                      977.59       0.00       0.00       0.00     978.11       0.00     978.11       95.37    91.14   1.001
  S18                     1145.64       0.00       0.00       0.00    1145.06       0.00    1145.06     2693.76  1356.74   0.999
  S19                      770.39       0.00       0.00       0.00     770.36       0.00     770.36      381.33   362.19   1.000
  S20                        0.00       0.00       0.00       0.00       0.00       0.00       0.00        0.00     0.00   0.000
  S21                      783.34       0.00       0.00       0.00     781.61       0.00     781.61    10971.92  4135.80   0.998
  S22                     1364.67       0.00       0.00       0.00    1365.98       0.00    1365.98      102.45   112.96   1.001
  S23                     1201.34       0.00       0.00       0.00    1200.30       0.00    1200.30     6586.67  3019.41   0.999
  S24                     1369.60       0.00       0.00       0.00    1371.06       0.00    1371.06       82.26    92.06   1.001
  S25                     1356.04       0.00       0.00       0.00    1358.31       0.00    1358.31       30.56    37.33   1.002
  S26                       22.11       0.00       0.00       0.00      21.88       0.00      21.88       81.55    15.50   0.989
  S27                     1359.91       0.00       0.00       0.00    1361.72       0.00    1361.72       51.06    60.01   1.001
  S28                        0.00       0.00       0.00       0.00       0.00       0.00       0.00        0.00     0.00   0.000
  S29                        0.00       0.00       0.00       0.00       0.00       0.00       0.00        0.00     0.00   0.000
  
  
  ******************
  Node Depth Summary
  ******************
  
  ---------------------------------------------------------------------------------
                                 Average  Maximum  Maximum  Time of Max    Reported
                                   Depth    Depth      HGL   Occurrence   Max Depth
  Node                 Type       Meters   Meters   Meters  days hr:min      Meters
  ---------------------------------------------------------------------------------
  0                    JUNCTION     0.00     0.00  1872.50     0  00:00        0.00
  1                    JUNCTION     0.00     0.00  1680.00     0  00:00        0.00
  2                    JUNCTION     0.00     0.00  1762.50     0  00:00        0.00
  3                    JUNCTION     9.55    42.41  1474.91   221  19:51       39.01
  4                    JUNCTION     0.02     0.14  1955.14   259  03:03        0.14
  5                    JUNCTION     0.21     0.74  1818.24   250  22:02        0.74
  6                    JUNCTION     0.00     0.03  1927.53   259  03:00        0.03
  7                    JUNCTION     0.03     0.19  1762.69   262  21:01        0.19
  8                    JUNCTION    17.95    81.89  1706.89   262  21:00       81.89
  9                    JUNCTION     0.00     0.03  1707.53   262  21:00        0.03
  10                   JUNCTION    17.97    81.94  1706.94   262  21:00       81.94
  11                   JUNCTION     1.80    19.24  1671.74   235  21:40       17.72
  12                   JUNCTION    10.08    50.58  1675.58   235  21:37       44.46
  13                   JUNCTION    38.20   123.59  1473.59   221  19:51      121.51
  14                   JUNCTION     0.25     0.66  1625.66   184  18:56        0.66
  15                   JUNCTION     0.03     0.18  1680.18   262  21:00        0.18
  16                   JUNCTION     0.25     0.76  1598.26   250  22:07        0.75
  17                   JUNCTION    77.60   204.00  1471.50   119  18:26      204.00
  18                   JUNCTION     0.04     0.26  1515.26   262  21:07        0.26
  19                   JUNCTION     0.00     0.00  1570.00     0  00:00        0.00
  20                   JUNCTION    69.27   201.00  1248.50   227  18:17      201.00
  21                   JUNCTION    65.72   186.20  1233.70   259  03:03      186.18
  22                   JUNCTION    19.79   159.72  1234.72   259  03:05      159.66
  23                   JUNCTION    67.21   193.01  1240.51   259  03:00      192.99
  24                   JUNCTION    21.85   138.01  1240.51   259  03:00      137.99
  25                   JUNCTION    17.21    21.53  1041.53   259  03:05       21.53
  26                   OUTFALL      0.22     1.00  1121.00   169  01:43        1.00
  27                   OUTFALL      0.27     0.82  1080.82   259  03:04        0.82
  28                   OUTFALL      0.33     0.54  1035.54   259  03:05        0.54
  
  
  *******************
  Node Inflow Summary
  *******************
  
  -------------------------------------------------------------------------------------------------
                                  Maximum  Maximum                  Lateral       Total        Flow
                                  Lateral    Total  Time of Max      Inflow      Inflow     Balance
                                   Inflow   Inflow   Occurrence      Volume      Volume       Error
  Node                 Type           LPS      LPS  days hr:min    10^6 ltr    10^6 ltr     Percent
  -------------------------------------------------------------------------------------------------
  0                    JUNCTION      0.00     0.00     0  00:00           0           0       0.000 ltr
  1                    JUNCTION      0.00     0.00     0  00:00           0           0       0.000 ltr
  2                    JUNCTION      0.00     0.00     0  00:00           0           0       0.000 ltr
  3                    JUNCTION      0.00  9511.88   221  19:17           0         768       0.000
  4                    JUNCTION    263.34   263.34   259  03:00         371         371       0.013
  5                    JUNCTION     88.54 16623.94   250  22:00         108    5.89e+03     -65.595
  6                    JUNCTION    199.49   199.49   259  03:00         268         268       0.000
  7                    JUNCTION    467.05   467.05   262  21:00         499         499      -0.041
  8                    JUNCTION    615.26 10671.96   221  17:55         843    2.88e+03     -82.005
  9                    JUNCTION    252.18   252.18   262  21:00         241         241       0.000
  10                   JUNCTION    259.20  4750.29   235  21:37         260    1.63e+04       3.019
  11                   JUNCTION     98.50  1724.61   235  21:39        91.6    5.65e+03      -0.115
  12                   JUNCTION    105.11  1457.44   262  21:00        92.5    1.03e+04       0.000
  13                   JUNCTION    478.24  8943.01   221  19:17         626    3.48e+03      -0.042
  14                   JUNCTION      0.00  2863.95   262  21:00           0     1.6e+04       0.000
  15                   JUNCTION    498.34   498.34   262  21:00         485         485      -0.021
  16                   JUNCTION     91.63  9864.34   250  22:02        97.3    3.32e+04      -0.068
  17                   JUNCTION   1357.43 10968.92   250  22:06     2.7e+03    3.86e+04      -0.006
  18                   JUNCTION    362.19   858.71   262  21:00         381         866      -0.065
  19                   JUNCTION      0.00     0.00     0  00:00           0           0       0.000 ltr
  20                   JUNCTION   4135.82  5485.76   237  07:00     1.1e+04    3.36e+04      -0.008
  21                   JUNCTION    112.96  4562.66   237  13:17         102    3.38e+04      -0.002
  22                   JUNCTION   3019.48  3510.26   262  21:00    6.59e+03    2.46e+04      -0.023
  23                   JUNCTION     92.06  1786.33   237  13:16        82.3    1.32e+04      -0.038
  24                   JUNCTION     37.33   147.63   221  16:24        30.6        33.7       0.000
  25                   JUNCTION     15.50  1308.35   259  03:05        81.5    1.51e+04       0.022
  26                   OUTFALL      60.01  3958.61   259  03:00        51.1    1.67e+04       0.000
  27                   OUTFALL       0.00  2035.08   259  03:04           0    9.58e+03       0.000
  28                   OUTFALL       0.00  1308.35   259  03:05           0    1.51e+04       0.000
  
  
  **********************
  Node Surcharge Summary
  **********************
  
  Surcharging occurs when water rises above the top of the highest conduit.
  ---------------------------------------------------------------------
                                               Max. Height   Min. Depth
                                   Hours       Above Crown    Below Rim
  Node                 Type      Surcharged         Meters       Meters
  ---------------------------------------------------------------------
  3                    JUNCTION     1621.54         38.405        0.000
  8                    JUNCTION     2849.88         77.889        0.000
  10                   JUNCTION     2848.94         77.938        0.000
  11                   JUNCTION      823.81         18.241        0.000
  12                   JUNCTION     4250.84         49.575        0.000
  13                   JUNCTION     2318.60        119.587        0.000
  17                   JUNCTION     3236.03        200.000        0.000
  20                   JUNCTION     7882.08        200.000        0.000
  21                   JUNCTION     7882.08        185.201        0.000
  22                   JUNCTION     4134.08        155.716        0.000
  23                   JUNCTION     7882.08        192.006        0.000
  24                   JUNCTION     3826.29        137.010        0.000
  25                   JUNCTION     7876.59         20.533        0.000
  
  
  *********************
  Node Flooding Summary
  *********************
  
  Flooding refers to all water that overflows a node, whether it ponds or not.
  --------------------------------------------------------------------------
                                                             Total   Maximum
                                 Maximum   Time of Max       Flood    Ponded
                        Hours       Rate    Occurrence      Volume     Depth
  Node                 Flooded       LPS   days hr:min    10^6 ltr    Meters
  --------------------------------------------------------------------------
  17                   1512.34   9556.93    250  22:06   13888.760   200.000
  20                     40.46   1890.82    237  07:00      76.762   200.000
  
  
  ***********************
  Outfall Loading Summary
  ***********************
  
  -----------------------------------------------------------
                         Flow       Avg       Max       Total
                         Freq      Flow      Flow      Volume
  Outfall Node           Pcnt       LPS       LPS    10^6 ltr
  -----------------------------------------------------------
  26                    81.66    853.88   3958.61   16710.229
  27                    58.95    672.85   2035.08    9578.356
  28                    99.62    586.66   1308.35   15071.450
  -----------------------------------------------------------
  System                80.08   2113.39   1308.35   41360.035
  
  
  ********************
  Link Flow Summary
  ********************
  
  -----------------------------------------------------------------------------
                                 Maximum  Time of Max   Maximum    Max/    Max/
                                  |Flow|   Occurrence   |Veloc|    Full    Full
  Link                 Type          LPS  days hr:min     m/sec    Flow   Depth
  -----------------------------------------------------------------------------
  0                    CONDUIT      0.00     0  00:00      0.00    0.00    0.00
  1                    CONDUIT      0.00     0  00:00      0.00    0.00    0.50
  2                    CONDUIT      0.00     0  00:00      0.00    0.00    0.00
  3                    CONDUIT   9511.88   221  19:17      1.46    0.21    1.00
  4                    CONDUIT   8717.61   221  19:17      1.08    0.10    1.00
  5                    CONDUIT    262.14   259  03:03      0.55    0.00    0.11
  6                    CONDUIT   7018.54   250  22:02      4.30    0.08    0.19
  7                    CONDUIT  16387.11   250  22:00     28.03    0.00    0.09
  8                    CONDUIT   2863.44   262  21:01      2.66    0.06    0.17
  9                    CONDUIT   9737.56   250  22:07      2.00    0.08    0.60
  10                   CONDUIT    464.29   262  21:01      0.07    0.00    0.52
  11                   CONDUIT   4678.45   235  21:37      0.37   16.07    1.00
  12                   CONDUIT  10316.82   221  17:55      7.55    0.00    0.50
  13                   CONDUIT   1689.88   193  20:06      2.28    1.48    1.00
  14                   CONDUIT   1407.54   179  22:13      1.79  362.34    1.00
  15                   CONDUIT   1405.41   262  21:00      2.10    1.23    0.83
  16                   CONDUIT   1458.53   262  21:00      2.22  375.47    0.83
  17                   CONDUIT   1655.45   190  01:34      2.11    1.22    1.00
  18                   CONDUIT    496.91   262  21:01      1.87    0.00    0.06
  19                   CONDUIT    842.56   262  21:07      0.27    0.01    0.53
  20                   CONDUIT      0.00     0  00:00      0.00    0.00    0.03
  21                   CONDUIT   2760.29   237  13:16      3.51  280.81    1.00
  22                   CONDUIT   1769.59   237  13:16      2.25  214.09    1.00
  23                   CONDUIT   1343.10   221  19:57      1.71    1.44    1.00
  24                   CONDUIT   1293.86   259  03:04      1.65    1.86    1.00
  25                   CONDUIT   1810.62   237  14:45      2.31  184.20    1.00
  26                   CONDUIT    140.30   221  16:24      0.23    0.03    1.00
  27                   CONDUIT   3898.69   259  03:00      5.08    1.09    1.00
  28                   CONDUIT   2035.08   259  03:04      2.72    5.89    0.91
  29                   CONDUIT   1308.35   259  03:05      2.02    0.57    0.77
  
  
  ***************************
  Flow Classification Summary
  ***************************
  
  -------------------------------------------------------------------------------------
                      Adjusted    ---------- Fraction of Time in Flow Class ---------- 
                       /Actual         Up    Down  Sub   Sup   Up    Down  Norm  Inlet 
  Conduit               Length    Dry  Dry   Dry   Crit  Crit  Crit  Crit  Ltd   Ctrl  
  -------------------------------------------------------------------------------------
  0                       1.00   1.00  0.00  0.00  0.00  0.00  0.00  0.00  0.00  0.00
  1                       1.00   0.00  1.00  0.00  0.00  0.00  0.00  0.00  0.00  0.00
  2                       1.00   1.00  0.00  0.00  0.00  0.00  0.00  0.00  0.00  0.00
  3                       1.00   0.00  0.55  0.00  0.45  0.00  0.00  0.00  0.35  0.00
  4                       1.00   0.00  0.00  0.00  1.00  0.00  0.00  0.00  0.59  0.00
  5                       1.00   0.00  0.00  0.00  1.00  0.00  0.00  0.00  0.99  0.00
  6                       1.00   0.00  0.00  0.00  0.03  0.96  0.00  0.00  0.67  0.00
  7                       1.00   0.00  0.72  0.00  0.28  0.00  0.00  0.00  0.96  0.00
  8                       1.00   0.00  0.00  0.00  0.63  0.36  0.00  0.00  0.61  0.00
  9                       1.00   0.00  0.00  0.00  1.00  0.00  0.00  0.00  0.99  0.00
  10                      1.00   0.00  0.00  0.00  0.99  0.00  0.00  0.00  0.99  0.00
  11                      1.00   0.00  0.00  0.00  1.00  0.00  0.00  0.00  0.01  0.00
  12                      1.00   0.00  0.73  0.00  0.27  0.00  0.00  0.00  0.92  0.00
  13                      1.00   0.00  0.00  0.00  1.00  0.00  0.00  0.00  0.76  0.00
  14                      1.00   0.00  0.00  0.00  1.00  0.00  0.00  0.00  0.00  0.00
  15                      1.00   0.00  0.00  0.00  1.00  0.00  0.00  0.00  0.83  0.00
  16                      1.00   0.00  0.00  0.00  1.00  0.00  0.00  0.00  0.00  0.00
  17                      1.00   0.00  0.00  0.00  1.00  0.00  0.00  0.00  0.54  0.00
  18                      1.00   0.00  0.00  0.00  0.67  0.32  0.00  0.00  0.98  0.00
  19                      1.00   0.00  0.00  0.00  1.00  0.00  0.00  0.00  0.99  0.00
  20                      1.00   0.00  1.00  0.00  0.00  0.00  0.00  0.00  0.00  0.00
  21                      1.00   0.00  0.00  0.00  1.00  0.00  0.00  0.00  0.00  0.00
  22                      1.00   0.00  0.00  0.00  1.00  0.00  0.00  0.00  0.00  0.00
  23                      1.00   0.00  0.00  0.00  1.00  0.00  0.00  0.00  0.00  0.00
  24                      1.00   0.00  0.00  0.00  1.00  0.00  0.00  0.00  0.39  0.00
  25                      1.00   0.00  0.00  0.00  1.00  0.00  0.00  0.00  0.00  0.00
  26                      1.00   0.00  0.02  0.00  0.98  0.00  0.00  0.00  0.50  0.00
  27                      1.00   0.00  0.46  0.00  0.42  0.12  0.00  0.00  0.18  0.00
  28                      1.00   0.00  0.41  0.00  0.59  0.00  0.00  0.00  0.10  0.00
  29                      1.00   0.00  0.00  0.00  1.00  0.00  0.00  0.00  0.01  0.00
  
  
  *************************
  Conduit Surcharge Summary
  *************************
  
  ----------------------------------------------------------------------------
                                                           Hours        Hours 
                         --------- Hours Full --------   Above Full   Capacity
  Conduit                Both Ends  Upstream  Dnstream   Normal Flow   Limited
  ----------------------------------------------------------------------------
  3                        1621.47   1621.47   2316.79      0.01         0.01
  4                        2318.57   2318.57   3236.03      0.01         0.01
  9                           0.01      0.01   3236.03      0.01         0.01
  10                          0.01      0.01   2848.50      0.01         0.01
  11                       2847.71   2848.51   2848.90   2729.70        19.62
  12                          0.01      0.01   2849.02      0.01         0.01
  13                        823.71    823.71   4668.80    780.24         0.01
  14                       4250.77   4668.80   4250.77   7706.55      4250.77
  15                          0.01    823.81      0.01    786.68         0.01
  16                          0.01      0.01   4250.77   7710.83         0.01
  17                       3559.79   3559.79   7882.08   2308.28      2770.19
  19                          0.01      0.01   4134.08      0.01         0.01
  21                       7882.08   7882.08   7882.08   7884.63      7881.07
  22                       7882.08   7882.08   7882.08   7869.67      7827.00
  23                       4709.52   4709.52   7882.08   2994.71         0.01
  24                       4709.52   4709.52   7876.59   3168.74      3297.50
  25                       7882.08   7882.08   7882.08   7787.54         1.26
  26                       3826.26   3826.26   7813.53      0.01         0.01
  27                         64.95     64.95   5170.56     56.04         0.01
  28                          0.01      0.01   5168.59   3657.41         0.01
  29                          0.01      0.01   7876.36      0.01         0.01
  

  Analysis begun on:  Tue Apr 14 17:15:22 2020
  Analysis ended on:  Tue Apr 14 17:18:17 2020
  Total elapsed time: 00:02:55