
  EPA STORM WATER MANAGEMENT MODEL - VERSION 5.1 (Build 5.1.013)
  --------------------------------------------------------------

  Template input file for Gottesacker karst system.  
  Based on input files created by Zhao Chen. 
  Modified by Chloe Fandel: 
  
  WARNING 08: elevation drop exceeds length for Conduit 2
  WARNING 04: minimum elevation drop used for Conduit 11
  WARNING 04: minimum elevation drop used for Conduit 14
  WARNING 04: minimum elevation drop used for Conduit 16
  WARNING 04: minimum elevation drop used for Conduit 21
  WARNING 04: minimum elevation drop used for Conduit 22
  WARNING 04: minimum elevation drop used for Conduit 25
  
  *********************************************************
  NOTE: The summary statistics displayed in this report are
  based on results found at every computational time step,  
  not just on results from each reporting time step.
  *********************************************************
  
  ****************
  Analysis Options
  ****************
  Flow Units ............... LPS
  Process Models:
    Rainfall/Runoff ........ YES
    RDII ................... NO
    Snowmelt ............... NO
    Groundwater ............ NO
    Flow Routing ........... YES
    Ponding Allowed ........ NO
    Water Quality .......... NO
  Infiltration Method ...... HORTON
  Flow Routing Method ...... DYNWAVE
  Surcharge Method ......... EXTRAN
  Starting Date ............ 11/14/2013 00:00:00
  Ending Date .............. 10/11/2014 00:00:00
  Antecedent Dry Days ...... 0.0
  Report Time Step ......... 01:00:00
  Wet Time Step ............ 00:30:00
  Dry Time Step ............ 01:00:00
  Routing Time Step ........ 30.00 sec
  Variable Time Step ....... YES
  Maximum Trials ........... 8
  Number of Threads ........ 4
  Head Tolerance ........... 0.001524 m
  
  
  **************************        Volume         Depth
  Runoff Quantity Continuity     hectare-m            mm
  **************************     ---------       -------
  Total Precipitation ......      2497.974       770.861
  Evaporation Loss .........         0.000         0.000
  Infiltration Loss ........         0.000         0.000
  Surface Runoff ...........      2494.863       769.901
  Final Storage ............         3.481         1.074
  Continuity Error (%) .....        -0.015
  
  
  **************************        Volume        Volume
  Flow Routing Continuity        hectare-m      10^6 ltr
  **************************     ---------     ---------
  Dry Weather Inflow .......         0.000         0.000
  Wet Weather Inflow .......      2494.869     24948.949
  Groundwater Inflow .......         0.000         0.000
  RDII Inflow ..............         0.000         0.000
  External Inflow ..........         1.825        18.247
  External Outflow .........     53987.924    539884.869
  Flooding Loss ............         0.000         0.000
  Evaporation Loss .........         0.000         0.000
  Exfiltration Loss ........         0.000         0.000
  Initial Stored Volume ....         0.000         0.000
  Final Stored Volume ......         7.078        70.778
  Continuity Error (%) .....     -2062.660
  
  
  *************************
  Highest Continuity Errors
  *************************
  Node 8 (-106.60%)
  Node 5 (-46.26%)
  
  
  ***************************
  Time-Step Critical Elements
  ***************************
  Link 27 (53.49%)
  Link 29 (40.42%)
  
  
  ********************************
  Highest Flow Instability Indexes
  ********************************
  Link 6 (110)
  Link 11 (107)
  Link 12 (106)
  Link 7 (104)
  Link 21 (66)
  
  
  *************************
  Routing Time Step Summary
  *************************
  Minimum Time Step           :     2.18 sec
  Average Time Step           :    13.51 sec
  Maximum Time Step           :    30.00 sec
  Percent in Steady State     :     0.30
  Average Iterations per Step :     4.48
  Percent Not Converging      :    33.13
  
  
  ***************************
  Subcatchment Runoff Summary
  ***************************
  
  ------------------------------------------------------------------------------------------------------------------------------
                            Total      Total      Total      Total     Imperv       Perv      Total       Total     Peak  Runoff
                           Precip      Runon       Evap      Infil     Runoff     Runoff     Runoff      Runoff   Runoff   Coeff
  Subcatchment                 mm         mm         mm         mm         mm         mm         mm    10^6 ltr      LPS
  ------------------------------------------------------------------------------------------------------------------------------
  S1                         0.00       0.00       0.00       0.00       0.00       0.00       0.00        0.00     0.00   0.000
  S2                         0.00       0.00       0.00       0.00       0.00       0.00       0.00        0.00     0.00   0.000
  S3                         0.00       0.00       0.00       0.00       0.00       0.00       0.00        0.00     0.00   0.000
  S4                         0.00       0.00       0.00       0.00       0.00       0.00       0.00        0.00     0.00   0.000
  S5                      1061.54       0.00       0.00       0.00    1061.69       0.00    1061.69      368.94   262.37   1.000
  S6                      1029.54       0.00       0.00       0.00    1030.00       0.00    1030.00      105.58    87.48   1.000
  S7                      1024.61       0.00       0.00       0.00    1024.82       0.00    1024.82      266.45   198.54   1.000
  S8                      1385.10       0.00       0.00       0.00    1385.52       0.00    1385.52      498.79   466.98   1.000
  S9                      1036.22       0.00       0.00       0.00    1036.14       0.00    1036.14      841.87   614.86   1.000
  S10                     1318.99       0.00       0.00       0.00    1319.66       0.00    1319.66      240.84   252.07   1.001
  S11                     1002.92       0.00       0.00       0.00    1003.18       0.00    1003.18      258.32   258.68   1.000
  S12                      969.60       0.00       0.00       0.00     970.18       0.00     970.18       89.74    98.03   1.001
  S13                      952.56       0.00       0.00       0.00     953.11       0.00     953.11       90.55   104.58   1.001
  S14                     1574.01       0.00       0.00       0.00    1574.39       0.00    1574.39      625.82   478.24   1.000
  S15                        0.00       0.00       0.00       0.00       0.00       0.00       0.00        0.00     0.00   0.000
  S16                     1292.86       0.00       0.00       0.00    1293.18       0.00    1293.18      484.95   498.34   1.000
  S17                      977.59       0.00       0.00       0.00     978.11       0.00     978.11       95.37    91.14   1.001
  S18                     1145.64       0.00       0.00       0.00    1145.06       0.00    1145.06     2693.76  1356.74   0.999
  S19                      770.39       0.00       0.00       0.00     770.36       0.00     770.36      381.33   362.19   1.000
  S20                        0.00       0.00       0.00       0.00       0.00       0.00       0.00        0.00     0.00   0.000
  S21                      783.34       0.00       0.00       0.00     781.61       0.00     781.61    10971.92  4135.80   0.998
  S22                     1364.67       0.00       0.00       0.00    1365.98       0.00    1365.98      102.45   112.96   1.001
  S23                     1201.34       0.00       0.00       0.00    1200.30       0.00    1200.30     6586.67  3019.41   0.999
  S24                     1369.60       0.00       0.00       0.00    1371.06       0.00    1371.06       82.26    92.06   1.001
  S25                     1356.04       0.00       0.00       0.00    1358.31       0.00    1358.31       30.56    37.33   1.002
  S26                       22.11       0.00       0.00       0.00      21.88       0.00      21.88       81.55    15.50   0.989
  S27                     1359.91       0.00       0.00       0.00    1361.72       0.00    1361.72       51.06    60.01   1.001
  S28                        0.00       0.00       0.00       0.00       0.00       0.00       0.00        0.00     0.00   0.000
  S29                        0.00       0.00       0.00       0.00       0.00       0.00       0.00        0.00     0.00   0.000
  
  
  ******************
  Node Depth Summary
  ******************
  
  ---------------------------------------------------------------------------------
                                 Average  Maximum  Maximum  Time of Max    Reported
                                   Depth    Depth      HGL   Occurrence   Max Depth
  Node                 Type       Meters   Meters   Meters  days hr:min      Meters
  ---------------------------------------------------------------------------------
  0                    JUNCTION     0.00     0.00  1872.50     0  00:00        0.00
  1                    JUNCTION     0.00     0.00  1680.00     0  00:00        0.00
  2                    JUNCTION     0.00     0.00  1762.50     0  00:00        0.00
  3                    JUNCTION     0.00     0.00  1432.50     0  00:00        0.00
  4                    JUNCTION     0.02     0.14  1955.14   259  03:04        0.14
  5                    JUNCTION     0.21     1.41  1818.91   254  20:59        1.36
  6                    JUNCTION     0.00     0.04  1927.54   250  06:57        0.04
  7                    JUNCTION     0.03     0.19  1762.69   262  21:01        0.19
  8                    JUNCTION     0.84    65.23  1690.23   254  20:58       48.93
  9                    JUNCTION     0.00     0.05  1707.55   254  20:58        0.04
  10                   JUNCTION     0.80    42.87  1667.87   254  20:58       39.05
  11                   JUNCTION     0.01     9.84  1662.34   254  20:59        7.22
  12                   JUNCTION     0.71    35.08  1660.08   254  20:59       34.22
  13                   JUNCTION     0.03     0.20  1350.20   259  03:19        0.20
  14                   JUNCTION     0.22    30.13  1655.13   254  20:59       28.99
  15                   JUNCTION     0.02     0.18  1680.18   262  21:00        0.18
  16                   JUNCTION     0.24     2.48  1599.98   254  21:02        2.39
  17                   JUNCTION     0.29     3.40  1270.90   254  21:07        2.69
  18                   JUNCTION     0.04     0.26  1515.26   262  21:07        0.26
  19                   JUNCTION     0.00     0.00  1570.00     0  00:00        0.00
  20                   JUNCTION    43.62    78.68  1126.18   254  21:07       76.56
  21                   JUNCTION    43.61    76.97  1124.47   254  21:07       75.30
  22                   JUNCTION    10.83    30.23  1105.23   254  21:08       29.45
  23                   JUNCTION    43.61    77.68  1125.18   254  21:07       75.83
  24                   JUNCTION     1.46    22.69  1125.19   254  21:08       20.84
  25                   JUNCTION    49.40    84.63  1104.63   254  21:08       83.86
  26                   OUTFALL      0.57     1.09  1121.09   330  22:59        1.09
  27                   OUTFALL      1.28     2.86  1082.86   254  21:08        2.83
  28                   OUTFALL      0.72     1.00  1036.00   138  15:31        1.00
  
  
  *******************
  Node Inflow Summary
  *******************
  
  -------------------------------------------------------------------------------------------------
                                  Maximum  Maximum                  Lateral       Total        Flow
                                  Lateral    Total  Time of Max      Inflow      Inflow     Balance
                                   Inflow   Inflow   Occurrence      Volume      Volume       Error
  Node                 Type           LPS      LPS  days hr:min    10^6 ltr    10^6 ltr     Percent
  -------------------------------------------------------------------------------------------------
  0                    JUNCTION      0.00     0.00     0  00:00           0           0       0.000 ltr
  1                    JUNCTION      0.00     0.00     0  00:00           0           0       0.000 ltr
  2                    JUNCTION      0.00     0.00     0  00:00           0           0       0.000 ltr
  3                    JUNCTION      0.00     0.00     0  00:00           0           0       0.000 ltr
  4                    JUNCTION    263.34   263.34   259  03:00         371         371       0.005
  5                    JUNCTION     88.54 66953.31   254  20:58         108    1.69e+04     -31.630
  6                    JUNCTION    199.49   199.49   259  03:00         268         268       0.000
  7                    JUNCTION    467.05   467.05   262  21:00         499         499      -0.010
  8                    JUNCTION    615.26 46526.40   262  21:00         843    8.73e+03     -51.598
  9                    JUNCTION    252.18   252.18   262  21:00         241         241       0.000
  10                   JUNCTION    259.20 92120.19   254  20:57         260    1.83e+04      -0.169
  11                   JUNCTION     98.51 49985.34   254  20:59        91.6         123      -0.579
  12                   JUNCTION    105.12 59011.38   254  20:56        92.5    1.84e+04       0.000
  13                   JUNCTION    478.24   478.24   259  03:00         626         626      -0.002
  14                   JUNCTION      0.00 72929.61   254  20:57           0    1.86e+04       0.019
  15                   JUNCTION    498.34   498.34   262  21:00         485         485      -0.021
  16                   JUNCTION     91.64 93707.71   254  20:59        97.3    4.34e+04      -0.096
  17                   JUNCTION   1357.43 88547.41   254  21:02     2.7e+03    4.68e+04       0.001
  18                   JUNCTION    362.19   858.72   262  21:00         381         866      -0.044
  19                   JUNCTION      0.00     0.00     0  00:00           0           0       0.000 ltr
  20                   JUNCTION   4135.82 79371.18   254  21:07     1.1e+04    5.78e+04       0.051
  21                   JUNCTION    112.96 87981.81     3  19:28         102    5.32e+05       0.009
  22                   JUNCTION   3019.48 54014.24   254  21:08    6.59e+03    5.39e+05       0.007
  23                   JUNCTION     92.06 53932.59     3  19:26        82.3    2.27e+04       0.188
  24                   JUNCTION     37.33 14292.49   158  20:12        30.6        76.9       0.000
  25                   JUNCTION     15.50  5120.07   242  22:20        81.5    7.31e+04       0.016
  26                   OUTFALL      60.01 28511.19   254  21:08        51.1         560       0.000
  27                   OUTFALL       0.00 49260.17   254  21:08           0    4.66e+05       0.000
  28                   OUTFALL       0.00  4763.71   254  21:08           0    7.31e+04       0.000
  
  
  **********************
  Node Surcharge Summary
  **********************
  
  Surcharging occurs when water rises above the top of the highest conduit.
  ---------------------------------------------------------------------
                                               Max. Height   Min. Depth
                                   Hours       Above Crown    Below Rim
  Node                 Type      Surcharged         Meters       Meters
  ---------------------------------------------------------------------
  8                    JUNCTION       36.75         61.234        0.000
  10                   JUNCTION       30.49         38.872        0.000
  11                   JUNCTION        0.04          5.844        0.000
  12                   JUNCTION       29.35         31.082        0.000
  14                   JUNCTION        0.32         26.133        0.000
  20                   JUNCTION     7852.57         74.685        0.000
  21                   JUNCTION     7852.57         72.967        0.000
  22                   JUNCTION     4195.94         26.228        0.000
  23                   JUNCTION     7852.58         73.682        0.000
  24                   JUNCTION      703.37         18.692        0.000
  25                   JUNCTION     7418.81         80.631        0.000
  
  
  *********************
  Node Flooding Summary
  *********************
  
  No nodes were flooded.
  
  
  ***********************
  Outfall Loading Summary
  ***********************
  
  -----------------------------------------------------------
                         Flow       Avg       Max       Total
                         Freq      Flow      Flow      Volume
  Outfall Node           Pcnt       LPS       LPS    10^6 ltr
  -----------------------------------------------------------
  26                    79.96     18.93  28511.19     559.885
  27                    55.84  32620.50  49260.17  466220.994
  28                    97.01   2876.57   4763.71   73135.815
  -----------------------------------------------------------
  System                77.60  35516.00   4763.71  539916.693
  
  
  ********************
  Link Flow Summary
  ********************
  
  -----------------------------------------------------------------------------
                                 Maximum  Time of Max   Maximum    Max/    Max/
                                  |Flow|   Occurrence   |Veloc|    Full    Full
  Link                 Type          LPS  days hr:min     m/sec    Flow   Depth
  -----------------------------------------------------------------------------
  0                    CONDUIT      0.00     0  00:00      0.00    0.00    0.00
  1                    CONDUIT      0.00     0  00:00      0.00    0.00    0.03
  2                    CONDUIT      0.00     0  00:00      0.00    0.00    0.00
  3                    CONDUIT      0.00     0  00:00      0.00    0.00    0.03
  4                    CONDUIT    460.95   259  03:19      0.35    0.01    0.45
  5                    CONDUIT    261.88   259  03:04      0.53    0.00    0.19
  6                    CONDUIT  24626.47   254  20:59      5.69    0.27    0.47
  7                    CONDUIT  66646.66   254  20:58    >50.00    0.00    0.18
  8                    CONDUIT  69437.54   254  20:59      6.48    1.36    0.81
  9                    CONDUIT  87006.53   254  21:02     10.18    0.74    0.72
  10                   CONDUIT    464.29   262  21:01      0.07    0.00    0.52
  11                   CONDUIT  91964.50   254  20:57      7.32  315.85    1.00
  12                   CONDUIT  45447.71   262  21:00      7.18    0.00    0.50
  13                   CONDUIT  49916.32   254  20:59      4.50    0.70    1.00
  14                   CONDUIT  58945.84   254  20:56      4.69  242.24    1.00
  15                   CONDUIT  36650.26   254  21:03      3.34    0.51    1.00
  16                   CONDUIT  59037.76   254  20:56      4.75  242.62    1.00
  17                   CONDUIT  76525.76   254  21:07      6.30    0.90    0.93
  18                   CONDUIT    496.96   262  21:01      1.87    0.00    0.06
  19                   CONDUIT    842.71   262  21:07      0.47    0.01    0.53
  20                   CONDUIT      0.00     0  00:00      0.00    0.00    0.03
  21                   CONDUIT  87981.19     3  19:28      7.00  142.89    1.00
  22                   CONDUIT  31063.75     3  19:28      2.47   59.99    1.00
  23                   CONDUIT  51085.06   254  21:08      4.07    0.87    1.00
  24                   CONDUIT   5111.52   242  22:20      0.47    0.12    1.00
  25                   CONDUIT  31142.76   254  21:08      2.75   50.58    1.00
  26                   CONDUIT  14281.59   158  20:12      1.31    0.05    1.00
  27                   CONDUIT  36387.25   330  22:59      4.32    0.16    0.64
  28                   CONDUIT  49260.17   254  21:08      4.29    2.28    0.86
  29                   CONDUIT   4763.71   254  21:08      6.07    2.07    1.00
  
  
  ***************************
  Flow Classification Summary
  ***************************
  
  -------------------------------------------------------------------------------------
                      Adjusted    ---------- Fraction of Time in Flow Class ---------- 
                       /Actual         Up    Down  Sub   Sup   Up    Down  Norm  Inlet 
  Conduit               Length    Dry  Dry   Dry   Crit  Crit  Crit  Crit  Ltd   Ctrl  
  -------------------------------------------------------------------------------------
  0                       1.00   1.00  0.00  0.00  0.00  0.00  0.00  0.00  0.00  0.00
  1                       1.00   0.00  1.00  0.00  0.00  0.00  0.00  0.00  0.00  0.00
  2                       1.00   1.00  0.00  0.00  0.00  0.00  0.00  0.00  0.00  0.00
  3                       1.00   0.00  1.00  0.00  0.00  0.00  0.00  0.00  0.00  0.00
  4                       1.00   0.00  0.00  0.00  1.00  0.00  0.00  0.00  0.99  0.00
  5                       1.00   0.00  0.00  0.00  1.00  0.00  0.00  0.00  0.99  0.00
  6                       1.00   0.00  0.00  0.00  0.02  0.97  0.00  0.00  0.71  0.00
  7                       1.00   0.00  0.63  0.00  0.37  0.00  0.00  0.00  0.98  0.00
  8                       1.00   0.00  0.00  0.00  0.78  0.21  0.00  0.00  0.76  0.00
  9                       1.00   0.00  0.00  0.00  0.00  1.00  0.00  0.00  0.99  0.00
  10                      1.00   0.00  0.00  0.00  1.00  0.00  0.00  0.00  0.99  0.00
  11                      1.00   0.00  0.00  0.00  1.00  0.00  0.00  0.00  0.00  0.00
  12                      1.00   0.00  0.62  0.00  0.38  0.00  0.00  0.00  0.99  0.00
  13                      1.00   0.00  0.01  0.00  0.99  0.00  0.00  0.00  0.99  0.00
  14                      1.00   0.00  0.00  0.00  1.00  0.00  0.00  0.00  0.00  0.00
  15                      1.00   0.00  0.01  0.00  0.99  0.00  0.00  0.00  0.99  0.00
  16                      1.00   0.00  0.00  0.00  1.00  0.00  0.00  0.00  0.00  0.00
  17                      1.00   0.00  0.00  0.00  1.00  0.00  0.00  0.00  0.99  0.00
  18                      1.00   0.00  0.00  0.00  0.70  0.30  0.00  0.00  0.98  0.00
  19                      1.00   0.00  0.00  0.00  1.00  0.00  0.00  0.00  0.99  0.00
  20                      1.00   0.00  1.00  0.00  0.00  0.00  0.00  0.00  0.00  0.00
  21                      1.00   0.00  0.00  0.00  1.00  0.00  0.00  0.00  0.00  0.00
  22                      1.00   0.00  0.00  0.00  1.00  0.00  0.00  0.00  0.00  0.00
  23                      1.00   0.00  0.00  0.00  1.00  0.00  0.00  0.00  0.06  0.00
  24                      1.00   0.00  0.00  0.00  1.00  0.00  0.00  0.00  0.45  0.00
  25                      1.00   0.00  0.00  0.00  1.00  0.00  0.00  0.00  0.00  0.00
  26                      1.00   0.00  0.08  0.00  0.92  0.00  0.00  0.00  0.51  0.00
  27                      1.00   0.00  0.46  0.00  0.53  0.00  0.00  0.00  0.01  0.00
  28                      1.00   0.00  0.44  0.00  0.56  0.00  0.00  0.00  0.05  0.00
  29                      1.00   0.00  0.03  0.00  0.97  0.00  0.00  0.00  0.00  0.00
  
  
  *************************
  Conduit Surcharge Summary
  *************************
  
  ----------------------------------------------------------------------------
                                                           Hours        Hours 
                         --------- Hours Full --------   Above Full   Capacity
  Conduit                Both Ends  Upstream  Dnstream   Normal Flow   Limited
  ----------------------------------------------------------------------------
  8                           0.01      0.32      0.01      0.59         0.01
  10                          0.01      0.01     34.28      0.01         0.01
  11                         30.27     34.29     30.40   2996.90        30.04
  12                          0.01      0.01     34.34      0.01         0.01
  13                          0.04      0.04     30.40      0.01         0.01
  14                         29.31     30.40     29.32   3325.47        29.31
  15                          0.04      0.04      0.32      0.01         0.01
  16                          0.32      0.32     29.33   3332.71         0.01
  17                          0.01      0.01   7852.57      0.01         0.01
  19                          0.01      0.01   4195.92      0.01         0.01
  21                       7852.56   7852.57   7852.57   3266.43      2875.26
  22                       7852.54   7852.57   7852.57   2731.05      2329.28
  23                       4195.92   4195.92   7852.57      0.01         0.01
  24                       4195.91   4195.91   7418.81      0.01         0.01
  25                       7852.54   7852.57   7852.57   2405.30      1619.47
  26                        703.14    703.14   7813.14      0.01         0.01
  27                          0.01      0.01   4011.86      0.01         0.01
  28                          0.01      0.01   4615.04   3765.57         0.01
  29                       4297.76   4297.76   7418.45   4413.37         0.01
  

  Analysis begun on:  Tue Apr 14 17:23:54 2020
  Analysis ended on:  Tue Apr 14 17:26:12 2020
  Total elapsed time: 00:02:18