
  EPA STORM WATER MANAGEMENT MODEL - VERSION 5.1 (Build 5.1.013)
  --------------------------------------------------------------

  Template input file for Gottesacker karst system.  
  Based on input files created by Zhao Chen. 
  Modified by Chloe Fandel: 
  
  WARNING 08: elevation drop exceeds length for Conduit 2
  WARNING 04: minimum elevation drop used for Conduit 4
  WARNING 04: minimum elevation drop used for Conduit 8
  WARNING 04: minimum elevation drop used for Conduit 13
  WARNING 04: minimum elevation drop used for Conduit 14
  WARNING 08: elevation drop exceeds length for Conduit 17
  WARNING 04: minimum elevation drop used for Conduit 20
  WARNING 04: minimum elevation drop used for Conduit 21
  
  *********************************************************
  NOTE: The summary statistics displayed in this report are
  based on results found at every computational time step,  
  not just on results from each reporting time step.
  *********************************************************
  
  ****************
  Analysis Options
  ****************
  Flow Units ............... LPS
  Process Models:
    Rainfall/Runoff ........ YES
    RDII ................... NO
    Snowmelt ............... NO
    Groundwater ............ NO
    Flow Routing ........... YES
    Ponding Allowed ........ NO
    Water Quality .......... NO
  Infiltration Method ...... HORTON
  Flow Routing Method ...... DYNWAVE
  Surcharge Method ......... EXTRAN
  Starting Date ............ 11/14/2013 00:00:00
  Ending Date .............. 10/11/2014 00:00:00
  Antecedent Dry Days ...... 0.0
  Report Time Step ......... 01:00:00
  Wet Time Step ............ 00:30:00
  Dry Time Step ............ 01:00:00
  Routing Time Step ........ 30.00 sec
  Variable Time Step ....... YES
  Maximum Trials ........... 8
  Number of Threads ........ 4
  Head Tolerance ........... 0.001524 m
  
  
  **************************        Volume         Depth
  Runoff Quantity Continuity     hectare-m            mm
  **************************     ---------       -------
  Total Precipitation ......      2405.521       764.385
  Evaporation Loss .........         0.000         0.000
  Infiltration Loss ........         0.000         0.000
  Surface Runoff ...........      2401.894       763.233
  Final Storage ............         3.945         1.254
  Continuity Error (%) .....        -0.013
  
  
  **************************        Volume        Volume
  Flow Routing Continuity        hectare-m      10^6 ltr
  **************************     ---------     ---------
  Dry Weather Inflow .......         0.000         0.000
  Wet Weather Inflow .......      2401.888     24019.133
  Groundwater Inflow .......         0.000         0.000
  RDII Inflow ..............         0.000         0.000
  External Inflow ..........         7.273        72.728
  External Outflow .........      5448.385     54484.413
  Flooding Loss ............         0.000         0.000
  Evaporation Loss .........         0.000         0.000
  Exfiltration Loss ........         0.000         0.000
  Initial Stored Volume ....         0.000         0.000
  Final Stored Volume ......         1.566        15.664
  Continuity Error (%) .....      -126.218
  
  
  *************************
  Highest Continuity Errors
  *************************
  Node 8 (-263.40%)
  Node 21 (58.18%)
  Node 5 (8.88%)
  
  
  ***************************
  Time-Step Critical Elements
  ***************************
  Link 20 (76.72%)
  Link 13 (16.71%)
  Link 24 (2.16%)
  
  
  ********************************
  Highest Flow Instability Indexes
  ********************************
  Link 6 (132)
  Link 7 (123)
  Link 11 (69)
  Link 8 (65)
  Link 24 (37)
  
  
  *************************
  Routing Time Step Summary
  *************************
  Minimum Time Step           :     0.57 sec
  Average Time Step           :    17.40 sec
  Maximum Time Step           :    30.00 sec
  Percent in Steady State     :     0.30
  Average Iterations per Step :     6.13
  Percent Not Converging      :    64.24
  
  
  ***************************
  Subcatchment Runoff Summary
  ***************************
  
  ------------------------------------------------------------------------------------------------------------------------------
                            Total      Total      Total      Total     Imperv       Perv      Total       Total     Peak  Runoff
                           Precip      Runon       Evap      Infil     Runoff     Runoff     Runoff      Runoff   Runoff   Coeff
  Subcatchment                 mm         mm         mm         mm         mm         mm         mm    10^6 ltr      LPS
  ------------------------------------------------------------------------------------------------------------------------------
  S1                         0.00       0.00       0.00       0.00       0.00       0.00       0.00        0.00     0.00   0.000
  S2                         0.00       0.00       0.00       0.00       0.00       0.00       0.00        0.00     0.00   0.000
  S3                         0.00       0.00       0.00       0.00       0.00       0.00       0.00        0.00     0.00   0.000
  S4                         0.00       0.00       0.00       0.00       0.00       0.00       0.00        0.00     0.00   0.000
  S5                      1061.54       0.00       0.00       0.00    1061.69       0.00    1061.69      368.94   262.37   1.000
  S6                      1029.54       0.00       0.00       0.00    1030.00       0.00    1030.00      105.58    87.48   1.000
  S7                      1024.61       0.00       0.00       0.00    1024.82       0.00    1024.82      266.45   198.54   1.000
  S8                      1385.10       0.00       0.00       0.00    1385.52       0.00    1385.52      498.79   466.98   1.000
  S9                      1036.22       0.00       0.00       0.00    1036.14       0.00    1036.14      841.87   614.86   1.000
  S10                     1318.99       0.00       0.00       0.00    1319.66       0.00    1319.66      240.84   252.07   1.001
  S11                      977.59       0.00       0.00       0.00     978.15       0.00     978.15       85.59    82.93   1.001
  S12                     1565.06       0.00       0.00       0.00    1565.91       0.00    1565.91      246.63   210.79   1.001
  S13                     1589.63       0.00       0.00       0.00    1590.24       0.00    1590.24      381.66   311.46   1.000
  S14                     1292.86       0.00       0.00       0.00    1293.18       0.00    1293.18      484.95   498.34   1.000
  S15                      770.39       0.00       0.00       0.00     770.36       0.00     770.36      381.33   362.19   1.000
  S16                        0.00       0.00       0.00       0.00       0.00       0.00       0.00        0.00     0.00   0.000
  S17                     1186.94       0.00       0.00       0.00    1185.96       0.00    1185.96     5977.26  2762.19   0.999
  S18                      845.75       0.00       0.00       0.00     843.82       0.00     843.82    13821.87  5167.79   0.998
  S19                     1364.67       0.00       0.00       0.00    1365.98       0.00    1365.98      102.45   112.96   1.001
  S20                        0.00       0.00       0.00       0.00       0.00       0.00       0.00        0.00     0.00   0.000
  S21                     1369.60       0.00       0.00       0.00    1371.06       0.00    1371.06       82.26    92.06   1.001
  S22                       22.11       0.00       0.00       0.00      21.88       0.00      21.88       81.55    15.50   0.989
  S23                     1359.91       0.00       0.00       0.00    1361.72       0.00    1361.72       51.06    60.01   1.001
  S24                        0.00       0.00       0.00       0.00       0.00       0.00       0.00        0.00     0.00   0.000
  S25                        0.00       0.00       0.00       0.00       0.00       0.00       0.00        0.00     0.00   0.000
  
  
  ******************
  Node Depth Summary
  ******************
  
  ---------------------------------------------------------------------------------
                                 Average  Maximum  Maximum  Time of Max    Reported
                                   Depth    Depth      HGL   Occurrence   Max Depth
  Node                 Type       Meters   Meters   Meters  days hr:min      Meters
  ---------------------------------------------------------------------------------
  0                    JUNCTION     0.00     0.00  1872.50     0  00:00        0.00
  1                    JUNCTION     0.00     0.00  1680.00     0  00:00        0.00
  2                    JUNCTION     0.00     0.00  1762.50     0  00:00        0.00
  3                    JUNCTION     0.00     0.00  1432.50     0  00:00        0.00
  4                    JUNCTION     0.03     0.14  1955.14   259  03:03        0.14
  5                    JUNCTION     0.25     0.93  1818.43   259  03:04        0.88
  6                    JUNCTION     0.00     0.03  1927.53   259  02:40        0.03
  7                    JUNCTION     0.03     0.20  1762.70   262  21:01        0.20
  8                    JUNCTION     1.14    44.12  1696.62   259  02:55       41.84
  9                    JUNCTION     0.00     0.05  1707.55   262  21:00        0.05
  10                   JUNCTION     0.30     2.03  1654.53   259  03:07        1.83
  11                   JUNCTION     0.33     2.23  1379.73   259  03:35        2.13
  12                   JUNCTION     0.33     2.23  1379.73   259  03:35        2.13
  13                   JUNCTION     0.03     0.19  1680.19   262  21:00        0.19
  14                   JUNCTION     0.05     0.26  1542.76   262  21:05        0.26
  15                   JUNCTION     0.00     0.00  1570.00     0  00:00        0.00
  16                   JUNCTION     0.13     0.48  1130.48   259  03:40        0.47
  17                   JUNCTION     1.26    28.49  1130.99   259  03:35       24.45
  18                   JUNCTION     1.25    28.01  1130.51   259  03:35       24.04
  19                   JUNCTION     1.24    27.48  1129.98   259  03:35       23.56
  20                   JUNCTION     0.60    20.43  1122.93   259  03:35       17.12
  21                   JUNCTION    13.59    15.36  1035.36   191  23:55       15.33
  22                   OUTFALL      0.00     0.62  1120.62   259  03:35        0.50
  23                   OUTFALL      0.53     3.06  1083.06   259  03:35        3.00
  24                   OUTFALL      0.02     0.56  1035.56   113  15:45        0.47
  
  
  *******************
  Node Inflow Summary
  *******************
  
  -------------------------------------------------------------------------------------------------
                                  Maximum  Maximum                  Lateral       Total        Flow
                                  Lateral    Total  Time of Max      Inflow      Inflow     Balance
                                   Inflow   Inflow   Occurrence      Volume      Volume       Error
  Node                 Type           LPS      LPS  days hr:min    10^6 ltr    10^6 ltr     Percent
  -------------------------------------------------------------------------------------------------
  0                    JUNCTION      0.00     0.00     0  00:00           0           0       0.000 ltr
  1                    JUNCTION      0.00     0.00     0  00:00           0           0       0.000 ltr
  2                    JUNCTION      0.00     0.00     0  00:00           0           0       0.000 ltr
  3                    JUNCTION      0.00     0.00     0  00:00           0           0       0.000 ltr
  4                    JUNCTION    263.34   263.34   259  03:00         371         371       0.016
  5                    JUNCTION     88.54 30320.61   259  02:58         108    2.25e+04       9.751
  6                    JUNCTION    199.49   199.49   259  03:00         268         268       0.000
  7                    JUNCTION    467.05   467.05   262  21:00         499         499       0.002
  8                    JUNCTION    615.26  2047.28   249  03:00         843    3.96e+03     -72.482
  9                    JUNCTION    252.18   252.18   262  21:00         241         241       0.000
  10                   JUNCTION     83.42 55332.34   259  03:04        87.6     3.5e+04      -0.065
  11                   JUNCTION    210.79  8556.37   259  03:08         247         476       0.057
  12                   JUNCTION    311.46 54677.54   259  03:08         382    3.59e+04      -0.003
  13                   JUNCTION    498.34   498.34   262  21:00         485         485      -0.013
  14                   JUNCTION    362.19   858.59   262  21:00         381         866      -0.039
  15                   JUNCTION      0.00     0.00     0  00:00           0           0       0.000 ltr
  16                   JUNCTION   2762.29  3374.93   262  21:00    5.98e+03    6.84e+03       0.009
  17                   JUNCTION   5167.83 56656.11   259  03:35    1.38e+04    4.95e+04       0.006
  18                   JUNCTION    112.96 26989.42   259  03:34         102     2.5e+04       0.001
  19                   JUNCTION      0.00 57923.62   259  03:34           0    5.27e+04       0.000
  20                   JUNCTION     92.06 56577.23   259  03:35        82.3    5.28e+04       0.000
  21                   JUNCTION     15.50  1871.92   259  03:40        81.5    3.85e+03     139.137
  22                   OUTFALL      60.01  1383.11   259  03:35        51.1        56.3       0.000
  23                   OUTFALL       0.00 56577.58   259  03:35           0    5.28e+04       0.000
  24                   OUTFALL       0.00  6121.36   113  15:45           0    1.67e+03       0.000
  
  
  **********************
  Node Surcharge Summary
  **********************
  
  Surcharging occurs when water rises above the top of the highest conduit.
  ---------------------------------------------------------------------
                                               Max. Height   Min. Depth
                                   Hours       Above Crown    Below Rim
  Node                 Type      Surcharged         Meters       Meters
  ---------------------------------------------------------------------
  8                    JUNCTION        5.82         40.122        0.000
  17                   JUNCTION        6.13         24.490        0.000
  18                   JUNCTION        6.05         24.008        0.000
  19                   JUNCTION        5.97         23.483        0.000
  20                   JUNCTION        4.72         16.430        0.000
  21                   JUNCTION     6709.59         11.361        0.000
  
  
  *********************
  Node Flooding Summary
  *********************
  
  No nodes were flooded.
  
  
  ***********************
  Outfall Loading Summary
  ***********************
  
  -----------------------------------------------------------
                         Flow       Avg       Max       Total
                         Freq      Flow      Flow      Volume
  Outfall Node           Pcnt       LPS       LPS    10^6 ltr
  -----------------------------------------------------------
  22                    81.78      3.78   1383.11      56.282
  23                    99.58   2635.53  56577.58   52817.887
  24                    88.85    104.48   6121.36    1672.195
  -----------------------------------------------------------
  System                90.07   2743.79   6121.36   54546.364
  
  
  ********************
  Link Flow Summary
  ********************
  
  -----------------------------------------------------------------------------
                                 Maximum  Time of Max   Maximum    Max/    Max/
                                  |Flow|   Occurrence   |Veloc|    Full    Full
  Link                 Type          LPS  days hr:min     m/sec    Flow   Depth
  -----------------------------------------------------------------------------
  0                    CONDUIT      0.00     0  00:00      0.00    0.00    0.00
  1                    CONDUIT      0.00     0  00:00      0.00    0.00    0.28
  2                    CONDUIT      0.00     0  00:00      0.00    0.00    0.00
  3                    CONDUIT      0.00     0  00:00      0.00    0.00    0.28
  4                    CONDUIT   8351.16   259  03:08      1.55   13.56    0.56
  5                    CONDUIT    262.05   259  03:03      0.85    0.00    0.13
  6                    CONDUIT  11452.69   259  03:04      4.12    0.12    0.37
  7                    CONDUIT  29972.55   259  02:58    >50.00    0.00    0.12
  8                    CONDUIT  43807.15   259  03:04      4.37  351.08    0.75
  9                    CONDUIT  54372.20   259  03:08      8.73    0.53    0.52
  10                   CONDUIT    464.08   262  21:01      0.07    0.00    0.52
  11                   CONDUIT   2023.82   249  03:00      6.39    0.00    0.50
  12                   CONDUIT  52299.37   259  03:35      7.42    0.62    0.78
  13                   CONDUIT  25611.51   259  03:36      2.04   41.59    1.00
  14                   CONDUIT  31102.46   259  03:35      2.48   60.07    1.00
  15                   CONDUIT    496.82   262  21:00      1.77    0.00    0.06
  16                   CONDUIT    848.22   262  21:05      1.50    0.01    0.09
  17                   CONDUIT      0.00     0  00:00      0.00    0.00    0.03
  18                   CONDUIT   1561.17   259  03:42      0.26    0.03    0.56
  19                   CONDUIT   1857.16   259  03:40      0.26    0.03    0.56
  20                   CONDUIT  26836.27   259  03:34      2.14   43.58    1.00
  21                   CONDUIT  56505.08   259  03:35      4.50  158.95    1.00
  22                   CONDUIT   1338.09   259  03:35      1.96    0.71    0.81
  23                   CONDUIT  56577.58   259  03:35      4.82    1.41    0.88
  24                   CONDUIT   6121.36   113  15:45      0.97    0.04    0.59
  
  
  ***************************
  Flow Classification Summary
  ***************************
  
  -------------------------------------------------------------------------------------
                      Adjusted    ---------- Fraction of Time in Flow Class ---------- 
                       /Actual         Up    Down  Sub   Sup   Up    Down  Norm  Inlet 
  Conduit               Length    Dry  Dry   Dry   Crit  Crit  Crit  Crit  Ltd   Ctrl  
  -------------------------------------------------------------------------------------
  0                       1.00   1.00  0.00  0.00  0.00  0.00  0.00  0.00  0.00  0.00
  1                       1.00   0.00  1.00  0.00  0.00  0.00  0.00  0.00  0.00  0.00
  2                       1.00   1.00  0.00  0.00  0.00  0.00  0.00  0.00  0.00  0.00
  3                       1.00   0.00  1.00  0.00  0.00  0.00  0.00  0.00  0.00  0.00
  4                       1.00   0.00  0.00  0.00  1.00  0.00  0.00  0.00  0.00  0.00
  5                       1.00   0.00  0.00  0.00  1.00  0.00  0.00  0.00  0.99  0.00
  6                       1.00   0.00  0.00  0.00  0.04  0.95  0.00  0.00  0.94  0.00
  7                       1.00   0.00  0.56  0.00  0.44  0.00  0.00  0.00  0.99  0.00
  8                       1.00   0.00  0.00  0.00  1.00  0.00  0.00  0.00  0.00  0.00
  9                       1.00   0.00  0.00  0.00  0.00  1.00  0.00  0.00  0.99  0.00
  10                      1.00   0.00  0.00  0.00  0.99  0.00  0.00  0.00  0.99  0.00
  11                      1.00   0.00  0.76  0.00  0.24  0.00  0.00  0.00  0.99  0.00
  12                      1.00   0.00  0.00  0.00  1.00  0.00  0.00  0.00  0.99  0.00
  13                      1.00   0.00  0.00  0.00  1.00  0.00  0.00  0.00  0.00  0.00
  14                      1.00   0.00  0.00  0.00  1.00  0.00  0.00  0.00  0.00  0.00
  15                      1.00   0.00  0.00  0.00  0.62  0.37  0.00  0.00  0.99  0.00
  16                      1.00   0.00  0.00  0.00  0.99  0.01  0.00  0.00  0.99  0.00
  17                      1.00   0.00  1.00  0.00  0.00  0.00  0.00  0.00  0.00  0.00
  18                      1.00   0.00  0.00  0.00  1.00  0.00  0.00  0.00  0.99  0.00
  19                      1.00   0.00  0.00  0.00  1.00  0.00  0.00  0.00  0.99  0.00
  20                      1.00   0.00  0.00  0.00  1.00  0.00  0.00  0.00  0.00  0.00
  21                      1.00   0.00  0.00  0.00  1.00  0.00  0.00  0.00  0.00  0.00
  22                      1.00   0.00  0.98  0.00  0.01  0.00  0.00  0.00  0.22  0.00
  23                      1.00   0.00  0.00  0.00  0.96  0.04  0.00  0.00  0.00  0.00
  24                      1.00   0.00  0.11  0.00  0.89  0.00  0.00  0.00  0.60  0.00
  
  
  *************************
  Conduit Surcharge Summary
  *************************
  
  ----------------------------------------------------------------------------
                                                           Hours        Hours 
                         --------- Hours Full --------   Above Full   Capacity
  Conduit                Both Ends  Upstream  Dnstream   Normal Flow   Limited
  ----------------------------------------------------------------------------
  4                           0.01      0.01      0.01      9.02         0.01
  8                           0.01      0.01      5.82   4976.07         0.01
  10                          0.01      0.01      5.82      0.01         0.01
  11                          0.01      0.01      5.81      0.01         0.01
  12                          0.01      0.01      6.13      0.01         0.01
  13                          6.05      6.13      6.05   2979.90         6.05
  14                          5.96      6.13      5.96   3747.31         5.96
  18                          0.01      0.01      6.05      0.01         0.01
  19                          0.01      0.01   6709.58      0.01         0.01
  20                          5.96      6.05      5.96   3225.52         5.96
  21                          4.72      5.96      4.72   5387.74         4.72
  22                          0.01      0.01   1716.63      0.01         0.01
  23                          0.01      4.72      0.01      5.06         0.01
  24                          0.01      0.01   6599.75      0.01         0.01
  

  Analysis begun on:  Tue Apr 14 21:52:25 2020
  Analysis ended on:  Tue Apr 14 21:54:37 2020
  Total elapsed time: 00:02:12