
  EPA STORM WATER MANAGEMENT MODEL - VERSION 5.1 (Build 5.1.013)
  --------------------------------------------------------------

  Template input file for Gottesacker karst system.  
  Based on input files created by Zhao Chen. 
  Modified by Chloe Fandel: 
  
  WARNING 08: elevation drop exceeds length for Conduit 2
  WARNING 04: minimum elevation drop used for Conduit 4
  WARNING 04: minimum elevation drop used for Conduit 8
  WARNING 04: minimum elevation drop used for Conduit 13
  WARNING 04: minimum elevation drop used for Conduit 14
  WARNING 08: elevation drop exceeds length for Conduit 17
  WARNING 04: minimum elevation drop used for Conduit 20
  WARNING 04: minimum elevation drop used for Conduit 21
  
  *********************************************************
  NOTE: The summary statistics displayed in this report are
  based on results found at every computational time step,  
  not just on results from each reporting time step.
  *********************************************************
  
  ****************
  Analysis Options
  ****************
  Flow Units ............... LPS
  Process Models:
    Rainfall/Runoff ........ YES
    RDII ................... NO
    Snowmelt ............... NO
    Groundwater ............ NO
    Flow Routing ........... YES
    Ponding Allowed ........ NO
    Water Quality .......... NO
  Infiltration Method ...... HORTON
  Flow Routing Method ...... DYNWAVE
  Surcharge Method ......... EXTRAN
  Starting Date ............ 11/14/2013 00:00:00
  Ending Date .............. 10/11/2014 00:00:00
  Antecedent Dry Days ...... 0.0
  Report Time Step ......... 01:00:00
  Wet Time Step ............ 00:30:00
  Dry Time Step ............ 01:00:00
  Routing Time Step ........ 30.00 sec
  Variable Time Step ....... YES
  Maximum Trials ........... 8
  Number of Threads ........ 4
  Head Tolerance ........... 0.001524 m
  
  
  **************************        Volume         Depth
  Runoff Quantity Continuity     hectare-m            mm
  **************************     ---------       -------
  Total Precipitation ......      2405.521       764.385
  Evaporation Loss .........         0.000         0.000
  Infiltration Loss ........         0.000         0.000
  Surface Runoff ...........      2401.894       763.233
  Final Storage ............         3.945         1.254
  Continuity Error (%) .....        -0.013
  
  
  **************************        Volume        Volume
  Flow Routing Continuity        hectare-m      10^6 ltr
  **************************     ---------     ---------
  Dry Weather Inflow .......         0.000         0.000
  Wet Weather Inflow .......      2401.890     24019.147
  Groundwater Inflow .......         0.000         0.000
  RDII Inflow ..............         0.000         0.000
  External Inflow ..........         1.209        12.090
  External Outflow .........      5649.758     56498.174
  Flooding Loss ............         0.000         0.000
  Evaporation Loss .........         0.000         0.000
  Exfiltration Loss ........         0.000         0.000
  Initial Stored Volume ....         0.000         0.000
  Final Stored Volume ......         1.578        15.782
  Continuity Error (%) .....      -135.169
  
  
  *************************
  Highest Continuity Errors
  *************************
  Node 8 (-221.07%)
  Node 5 (11.67%)
  
  
  ***************************
  Time-Step Critical Elements
  ***************************
  Link 20 (73.32%)
  Link 13 (18.47%)
  Link 24 (3.86%)
  
  
  ********************************
  Highest Flow Instability Indexes
  ********************************
  Link 6 (137)
  Link 7 (128)
  Link 11 (73)
  Link 8 (68)
  Link 24 (13)
  
  
  *************************
  Routing Time Step Summary
  *************************
  Minimum Time Step           :     0.50 sec
  Average Time Step           :    17.36 sec
  Maximum Time Step           :    30.00 sec
  Percent in Steady State     :     0.30
  Average Iterations per Step :     6.09
  Percent Not Converging      :    63.56
  
  
  ***************************
  Subcatchment Runoff Summary
  ***************************
  
  ------------------------------------------------------------------------------------------------------------------------------
                            Total      Total      Total      Total     Imperv       Perv      Total       Total     Peak  Runoff
                           Precip      Runon       Evap      Infil     Runoff     Runoff     Runoff      Runoff   Runoff   Coeff
  Subcatchment                 mm         mm         mm         mm         mm         mm         mm    10^6 ltr      LPS
  ------------------------------------------------------------------------------------------------------------------------------
  S1                         0.00       0.00       0.00       0.00       0.00       0.00       0.00        0.00     0.00   0.000
  S2                         0.00       0.00       0.00       0.00       0.00       0.00       0.00        0.00     0.00   0.000
  S3                         0.00       0.00       0.00       0.00       0.00       0.00       0.00        0.00     0.00   0.000
  S4                         0.00       0.00       0.00       0.00       0.00       0.00       0.00        0.00     0.00   0.000
  S5                      1061.54       0.00       0.00       0.00    1061.69       0.00    1061.69      368.94   262.37   1.000
  S6                      1029.54       0.00       0.00       0.00    1030.00       0.00    1030.00      105.58    87.48   1.000
  S7                      1024.61       0.00       0.00       0.00    1024.82       0.00    1024.82      266.45   198.54   1.000
  S8                      1385.10       0.00       0.00       0.00    1385.52       0.00    1385.52      498.79   466.98   1.000
  S9                      1036.22       0.00       0.00       0.00    1036.14       0.00    1036.14      841.87   614.86   1.000
  S10                     1318.99       0.00       0.00       0.00    1319.66       0.00    1319.66      240.84   252.07   1.001
  S11                      977.59       0.00       0.00       0.00     978.15       0.00     978.15       85.59    82.93   1.001
  S12                     1565.06       0.00       0.00       0.00    1565.91       0.00    1565.91      246.63   210.79   1.001
  S13                     1589.63       0.00       0.00       0.00    1590.24       0.00    1590.24      381.66   311.46   1.000
  S14                     1292.86       0.00       0.00       0.00    1293.18       0.00    1293.18      484.95   498.34   1.000
  S15                      770.39       0.00       0.00       0.00     770.36       0.00     770.36      381.33   362.19   1.000
  S16                        0.00       0.00       0.00       0.00       0.00       0.00       0.00        0.00     0.00   0.000
  S17                     1186.94       0.00       0.00       0.00    1185.96       0.00    1185.96     5977.26  2762.19   0.999
  S18                      845.75       0.00       0.00       0.00     843.82       0.00     843.82    13821.87  5167.79   0.998
  S19                     1364.67       0.00       0.00       0.00    1365.98       0.00    1365.98      102.45   112.96   1.001
  S20                        0.00       0.00       0.00       0.00       0.00       0.00       0.00        0.00     0.00   0.000
  S21                     1369.60       0.00       0.00       0.00    1371.06       0.00    1371.06       82.26    92.06   1.001
  S22                       22.11       0.00       0.00       0.00      21.88       0.00      21.88       81.55    15.50   0.989
  S23                     1359.91       0.00       0.00       0.00    1361.72       0.00    1361.72       51.06    60.01   1.001
  S24                        0.00       0.00       0.00       0.00       0.00       0.00       0.00        0.00     0.00   0.000
  S25                        0.00       0.00       0.00       0.00       0.00       0.00       0.00        0.00     0.00   0.000
  
  
  ******************
  Node Depth Summary
  ******************
  
  ---------------------------------------------------------------------------------
                                 Average  Maximum  Maximum  Time of Max    Reported
                                   Depth    Depth      HGL   Occurrence   Max Depth
  Node                 Type       Meters   Meters   Meters  days hr:min      Meters
  ---------------------------------------------------------------------------------
  0                    JUNCTION     0.00     0.00  1872.50     0  00:00        0.00
  1                    JUNCTION     0.00     0.00  1680.00     0  00:00        0.00
  2                    JUNCTION     0.00     0.00  1762.50     0  00:00        0.00
  3                    JUNCTION     0.00     0.00  1432.50     0  00:00        0.00
  4                    JUNCTION     0.03     0.14  1955.14   259  03:03        0.14
  5                    JUNCTION     0.25     0.75  1818.25   254  21:00        0.75
  6                    JUNCTION     0.00     0.03  1927.53   262  21:00        0.03
  7                    JUNCTION     0.03     0.20  1762.70   262  21:01        0.20
  8                    JUNCTION     1.12    43.23  1695.73   262  19:04       39.91
  9                    JUNCTION     0.00     0.04  1707.54   262  19:05        0.04
  10                   JUNCTION     0.30     1.91  1654.41   262  19:17        1.78
  11                   JUNCTION     0.33     2.03  1379.53   262  19:45        2.03
  12                   JUNCTION     0.33     2.03  1379.53   262  19:45        2.03
  13                   JUNCTION     0.03     0.19  1680.19   262  21:00        0.19
  14                   JUNCTION     0.05     0.26  1542.76   262  21:05        0.26
  15                   JUNCTION     0.00     0.00  1570.00     0  00:00        0.00
  16                   JUNCTION     0.13     0.47  1130.47   262  21:13        0.47
  17                   JUNCTION     1.25    16.28  1118.78   262  19:51       16.14
  18                   JUNCTION     1.24    15.95  1118.45   262  19:50       15.81
  19                   JUNCTION     1.23    15.58  1118.08   262  19:50       15.45
  20                   JUNCTION     0.60    10.38  1112.88   262  19:50       10.27
  21                   JUNCTION    14.27    25.48  1045.48   262  21:13       25.19
  22                   OUTFALL      0.00     0.00  1120.00     0  00:00        0.00
  23                   OUTFALL      0.53     2.84  1082.84   262  19:50        2.84
  24                   OUTFALL      0.15     0.67  1035.67   262  21:13        0.66
  
  
  *******************
  Node Inflow Summary
  *******************
  
  -------------------------------------------------------------------------------------------------
                                  Maximum  Maximum                  Lateral       Total        Flow
                                  Lateral    Total  Time of Max      Inflow      Inflow     Balance
                                   Inflow   Inflow   Occurrence      Volume      Volume       Error
  Node                 Type           LPS      LPS  days hr:min    10^6 ltr    10^6 ltr     Percent
  -------------------------------------------------------------------------------------------------
  0                    JUNCTION      0.00     0.00     0  00:00           0           0       0.000 ltr
  1                    JUNCTION      0.00     0.00     0  00:00           0           0       0.000 ltr
  2                    JUNCTION      0.00     0.00     0  00:00           0           0       0.000 ltr
  3                    JUNCTION      0.00     0.00     0  00:00           0           0       0.000 ltr
  4                    JUNCTION    263.34   263.34   259  03:00         371         371       0.016
  5                    JUNCTION     88.54 18502.75   262  19:03         108    2.35e+04      13.215
  6                    JUNCTION    199.49   199.49   259  03:00         268         268       0.000
  7                    JUNCTION    467.05   467.05   262  21:00         499         499       0.003
  8                    JUNCTION    615.26 10936.53   250  22:00         843    4.38e+03     -68.854
  9                    JUNCTION    252.18   252.18   262  21:00         241         241       0.000
  10                   JUNCTION     83.42 49632.16   262  19:16        87.6    3.49e+04      -0.062
  11                   JUNCTION    210.79  7128.97   262  19:15         247         464       0.066
  12                   JUNCTION    311.46 49928.98   262  19:20         382    3.57e+04      -0.004
  13                   JUNCTION    498.34   498.34   262  21:00         485         485      -0.013
  14                   JUNCTION    362.19   858.59   262  21:00         381         866      -0.039
  15                   JUNCTION      0.00     0.00     0  00:00           0           0       0.000 ltr
  16                   JUNCTION   2762.29  3374.93   262  21:00    5.98e+03    6.84e+03       0.009
  17                   JUNCTION   5167.83 47265.39   262  19:47    1.38e+04    4.93e+04       0.007
  18                   JUNCTION    112.96 22503.81   262  20:57         102    2.49e+04       0.001
  19                   JUNCTION      0.00 48551.53   262  19:50           0    5.26e+04       0.001
  20                   JUNCTION     92.06 48567.18   262  19:50        82.3    5.27e+04       0.000
  21                   JUNCTION     15.50  1824.27   262  21:13        81.5    3.79e+03      -0.015
  22                   OUTFALL      60.01    60.01   259  03:00        51.1        51.1       0.000
  23                   OUTFALL       0.00 48563.05   262  19:50           0    5.27e+04       0.000
  24                   OUTFALL       0.00  1824.27   262  21:13           0    3.79e+03       0.000
  
  
  **********************
  Node Surcharge Summary
  **********************
  
  Surcharging occurs when water rises above the top of the highest conduit.
  ---------------------------------------------------------------------
                                               Max. Height   Min. Depth
                                   Hours       Above Crown    Below Rim
  Node                 Type      Surcharged         Meters       Meters
  ---------------------------------------------------------------------
  8                    JUNCTION        4.53         39.235        0.000
  17                   JUNCTION        4.59         12.279        0.000
  18                   JUNCTION        4.55         11.945        0.000
  19                   JUNCTION        4.50         11.578        0.000
  20                   JUNCTION        2.40          6.381        0.000
  21                   JUNCTION     6724.46         21.479        0.000
  
  
  *********************
  Node Flooding Summary
  *********************
  
  No nodes were flooded.
  
  
  ***********************
  Outfall Loading Summary
  ***********************
  
  -----------------------------------------------------------
                         Flow       Avg       Max       Total
                         Freq      Flow      Flow      Volume
  Outfall Node           Pcnt       LPS       LPS    10^6 ltr
  -----------------------------------------------------------
  22                    81.65      3.41     60.01      51.061
  23                    99.58   2624.51  48563.05   52654.327
  24                    89.04    217.10   1824.27    3793.007
  -----------------------------------------------------------
  System                90.09   2845.02   1824.27   56498.395
  
  
  ********************
  Link Flow Summary
  ********************
  
  -----------------------------------------------------------------------------
                                 Maximum  Time of Max   Maximum    Max/    Max/
                                  |Flow|   Occurrence   |Veloc|    Full    Full
  Link                 Type          LPS  days hr:min     m/sec    Flow   Depth
  -----------------------------------------------------------------------------
  0                    CONDUIT      0.00     0  00:00      0.00    0.00    0.00
  1                    CONDUIT      0.00     0  00:00      0.00    0.00    0.25
  2                    CONDUIT      0.00     0  00:00      0.00    0.00    0.00
  3                    CONDUIT      0.00     0  00:00      0.00    0.00    0.25
  4                    CONDUIT   6961.27   262  19:15      1.55   11.31    0.51
  5                    CONDUIT    262.05   259  03:03      0.57    0.00    0.11
  6                    CONDUIT   7417.47   254  21:00      4.12    0.08    0.33
  7                    CONDUIT  18301.61   262  19:03     48.77    0.00    0.09
  8                    CONDUIT  42949.79   262  19:16      4.34  344.21    0.74
  9                    CONDUIT  49735.67   262  19:20      8.43    0.48    0.48
  10                   CONDUIT    464.08   262  21:01      0.07    0.00    0.52
  11                   CONDUIT  10413.24   250  22:00      6.39    0.00    0.50
  12                   CONDUIT  44954.42   262  19:45      7.42    0.54    0.75
  13                   CONDUIT  21252.06   262  19:47      1.69   34.51    1.00
  14                   CONDUIT  26033.22   262  19:49      2.07   50.28    1.00
  15                   CONDUIT    496.80   262  21:00      1.77    0.00    0.06
  16                   CONDUIT    848.18   262  21:05      1.50    0.01    0.09
  17                   CONDUIT      0.00     0  00:00      0.00    0.00    0.03
  18                   CONDUIT   1531.04   262  21:13      0.25    0.03    0.56
  19                   CONDUIT   1812.21   262  21:13      0.25    0.03    0.56
  20                   CONDUIT  22534.26   262  21:04      1.79   36.60    1.00
  21                   CONDUIT  48500.52   262  19:50      3.86  136.43    1.00
  22                   CONDUIT      0.00     0  00:00      0.00    0.00    0.50
  23                   CONDUIT  48563.05   262  19:50      4.24    1.21    0.86
  24                   CONDUIT   1824.27   262  21:13      2.60    0.79    0.84
  
  
  ***************************
  Flow Classification Summary
  ***************************
  
  -------------------------------------------------------------------------------------
                      Adjusted    ---------- Fraction of Time in Flow Class ---------- 
                       /Actual         Up    Down  Sub   Sup   Up    Down  Norm  Inlet 
  Conduit               Length    Dry  Dry   Dry   Crit  Crit  Crit  Crit  Ltd   Ctrl  
  -------------------------------------------------------------------------------------
  0                       1.00   1.00  0.00  0.00  0.00  0.00  0.00  0.00  0.00  0.00
  1                       1.00   0.00  1.00  0.00  0.00  0.00  0.00  0.00  0.00  0.00
  2                       1.00   1.00  0.00  0.00  0.00  0.00  0.00  0.00  0.00  0.00
  3                       1.00   0.00  1.00  0.00  0.00  0.00  0.00  0.00  0.00  0.00
  4                       1.00   0.00  0.00  0.00  1.00  0.00  0.00  0.00  0.00  0.00
  5                       1.00   0.00  0.00  0.00  1.00  0.00  0.00  0.00  0.99  0.00
  6                       1.00   0.00  0.00  0.00  0.04  0.96  0.00  0.00  0.93  0.00
  7                       1.00   0.00  0.54  0.00  0.46  0.00  0.00  0.00  0.99  0.00
  8                       1.00   0.00  0.00  0.00  1.00  0.00  0.00  0.00  0.00  0.00
  9                       1.00   0.00  0.00  0.00  0.00  1.00  0.00  0.00  0.99  0.00
  10                      1.00   0.00  0.00  0.00  0.99  0.00  0.00  0.00  0.99  0.00
  11                      1.00   0.00  0.75  0.00  0.25  0.00  0.00  0.00  0.99  0.00
  12                      1.00   0.00  0.00  0.00  1.00  0.00  0.00  0.00  0.99  0.00
  13                      1.00   0.00  0.00  0.00  1.00  0.00  0.00  0.00  0.00  0.00
  14                      1.00   0.00  0.00  0.00  1.00  0.00  0.00  0.00  0.00  0.00
  15                      1.00   0.00  0.00  0.00  0.62  0.37  0.00  0.00  0.99  0.00
  16                      1.00   0.00  0.00  0.00  0.99  0.01  0.00  0.00  0.99  0.00
  17                      1.00   0.00  1.00  0.00  0.00  0.00  0.00  0.00  0.00  0.00
  18                      1.00   0.00  0.00  0.00  1.00  0.00  0.00  0.00  0.99  0.00
  19                      1.00   0.00  0.00  0.00  1.00  0.00  0.00  0.00  0.99  0.00
  20                      1.00   0.00  0.00  0.00  1.00  0.00  0.00  0.00  0.00  0.00
  21                      1.00   0.00  0.00  0.00  1.00  0.00  0.00  0.00  0.00  0.00
  22                      1.00   0.00  1.00  0.00  0.00  0.00  0.00  0.00  0.00  0.00
  23                      1.00   0.00  0.00  0.00  0.96  0.04  0.00  0.00  0.00  0.00
  24                      1.00   0.00  0.10  0.00  0.90  0.00  0.00  0.00  0.12  0.00
  
  
  *************************
  Conduit Surcharge Summary
  *************************
  
  ----------------------------------------------------------------------------
                                                           Hours        Hours 
                         --------- Hours Full --------   Above Full   Capacity
  Conduit                Both Ends  Upstream  Dnstream   Normal Flow   Limited
  ----------------------------------------------------------------------------
  4                           0.01      0.01      0.01      7.25         0.01
  8                           0.01      0.01      4.53   5023.75         0.01
  10                          0.01      0.01      4.53      0.01         0.01
  11                          0.01      0.01      4.53      0.01         0.01
  12                          0.01      0.01      4.59      0.01         0.01
  13                          4.55      4.59      4.55   2912.11         4.55
  14                          4.50      4.59      4.50   3694.20         4.50
  18                          0.01      0.01      4.55      0.01         0.01
  19                          0.01      0.01   6724.45      0.01         0.01
  20                          4.50      4.55      4.50   3168.00         4.50
  21                          2.40      4.50      2.40   5482.76         2.40
  23                          0.01      2.40      0.01      2.56         0.01
  24                          0.01      0.01   6698.37      0.01         0.01
  

  Analysis begun on:  Tue Apr 14 21:56:40 2020
  Analysis ended on:  Tue Apr 14 21:58:46 2020
  Total elapsed time: 00:02:06