
  EPA STORM WATER MANAGEMENT MODEL - VERSION 5.1 (Build 5.1.013)
  --------------------------------------------------------------

  Template input file for Gottesacker karst system.  
  Based on input files created by Zhao Chen. 
  Modified by Chloe Fandel: 
  
  WARNING 04: minimum elevation drop used for Conduit 1
  WARNING 04: minimum elevation drop used for Conduit 4
  WARNING 04: minimum elevation drop used for Conduit 6
  WARNING 04: minimum elevation drop used for Conduit 11
  WARNING 04: minimum elevation drop used for Conduit 16
  WARNING 08: elevation drop exceeds length for Conduit 17
  WARNING 04: minimum elevation drop used for Conduit 22
  WARNING 04: minimum elevation drop used for Conduit 23
  WARNING 04: minimum elevation drop used for Conduit 27
  WARNING 04: minimum elevation drop used for Conduit 28
  WARNING 04: minimum elevation drop used for Conduit 29
  WARNING 04: minimum elevation drop used for Conduit 30
  WARNING 04: minimum elevation drop used for Conduit 31
  WARNING 04: minimum elevation drop used for Conduit 33
  
  *********************************************************
  NOTE: The summary statistics displayed in this report are
  based on results found at every computational time step,  
  not just on results from each reporting time step.
  *********************************************************
  
  ****************
  Analysis Options
  ****************
  Flow Units ............... LPS
  Process Models:
    Rainfall/Runoff ........ YES
    RDII ................... NO
    Snowmelt ............... NO
    Groundwater ............ NO
    Flow Routing ........... YES
    Ponding Allowed ........ NO
    Water Quality .......... NO
  Infiltration Method ...... HORTON
  Flow Routing Method ...... DYNWAVE
  Surcharge Method ......... EXTRAN
  Starting Date ............ 11/14/2013 00:00:00
  Ending Date .............. 10/11/2014 00:00:00
  Antecedent Dry Days ...... 0.0
  Report Time Step ......... 01:00:00
  Wet Time Step ............ 00:30:00
  Dry Time Step ............ 01:00:00
  Routing Time Step ........ 30.00 sec
  Variable Time Step ....... YES
  Maximum Trials ........... 8
  Number of Threads ........ 4
  Head Tolerance ........... 0.001524 m
  
  
  **************************        Volume         Depth
  Runoff Quantity Continuity     hectare-m            mm
  **************************     ---------       -------
  Total Precipitation ......      1826.492       684.785
  Evaporation Loss .........         0.000         0.000
  Infiltration Loss ........         0.000         0.000
  Surface Runoff ...........      1823.534       683.676
  Final Storage ............         3.229         1.211
  Continuity Error (%) .....        -0.015
  
  
  **************************        Volume        Volume
  Flow Routing Continuity        hectare-m      10^6 ltr
  **************************     ---------     ---------
  Dry Weather Inflow .......         0.000         0.000
  Wet Weather Inflow .......      1823.544     18235.634
  Groundwater Inflow .......         0.000         0.000
  RDII Inflow ..............         0.000         0.000
  External Inflow ..........         1.565        15.648
  External Outflow .........      8391.688     83917.754
  Flooding Loss ............         0.000         0.000
  Evaporation Loss .........         0.000         0.000
  Exfiltration Loss ........         0.000         0.000
  Initial Stored Volume ....         0.000         0.000
  Final Stored Volume ......         1.736        17.356
  Continuity Error (%) .....      -359.886
  
  
  *************************
  Highest Continuity Errors
  *************************
  Node 14 (-938.46%)
  Node 15 (-628.05%)
  Node 9 (-92.99%)
  Node 17 (-71.50%)
  Node 18 (20.63%)
  
  
  ***************************
  Time-Step Critical Elements
  ***************************
  Link 36 (84.98%)
  Link 22 (11.96%)
  Link 29 (2.26%)
  
  
  ********************************
  Highest Flow Instability Indexes
  ********************************
  Link 11 (96)
  Link 12 (95)
  Link 3 (50)
  Link 6 (29)
  Link 20 (25)
  
  
  *************************
  Routing Time Step Summary
  *************************
  Minimum Time Step           :     2.22 sec
  Average Time Step           :    10.66 sec
  Maximum Time Step           :    30.00 sec
  Percent in Steady State     :     0.30
  Average Iterations per Step :     7.75
  Percent Not Converging      :    95.87
  
  
  ***************************
  Subcatchment Runoff Summary
  ***************************
  
  ------------------------------------------------------------------------------------------------------------------------------
                            Total      Total      Total      Total     Imperv       Perv      Total       Total     Peak  Runoff
                           Precip      Runon       Evap      Infil     Runoff     Runoff     Runoff      Runoff   Runoff   Coeff
  Subcatchment                 mm         mm         mm         mm         mm         mm         mm    10^6 ltr      LPS
  ------------------------------------------------------------------------------------------------------------------------------
  S1                         0.00       0.00       0.00       0.00       0.00       0.00       0.00        0.00     0.00   0.000
  S2                         0.00       0.00       0.00       0.00       0.00       0.00       0.00        0.00     0.00   0.000
  S3                         0.00       0.00       0.00       0.00       0.00       0.00       0.00        0.00     0.00   0.000
  S4                         0.00       0.00       0.00       0.00       0.00       0.00       0.00        0.00     0.00   0.000
  S5                      1035.63       0.00       0.00       0.00    1036.39       0.00    1036.39       46.64    41.29   1.001
  S6                      1025.22       0.00       0.00       0.00    1025.31       0.00    1025.31      371.68   262.35   1.000
  S7                      1385.10       0.00       0.00       0.00    1385.52       0.00    1385.52      498.79   466.98   1.000
  S8                      1066.35       0.00       0.00       0.00    1066.54       0.00    1066.54      322.63   234.60   1.000
  S9                      1024.25       0.00       0.00       0.00    1024.72       0.00    1024.72      140.90   143.99   1.000
  S10                     1036.22       0.00       0.00       0.00    1036.14       0.00    1036.14      841.87   614.86   1.000
  S11                     1318.99       0.00       0.00       0.00    1319.66       0.00    1319.66      240.84   252.07   1.001
  S14                      977.59       0.00       0.00       0.00     978.15       0.00     978.15       85.59    82.93   1.001
  S15                     1577.49       0.00       0.00       0.00    1578.42       0.00    1578.42      213.09   185.05   1.001
  S16                     1589.63       0.00       0.00       0.00    1590.24       0.00    1590.24      381.66   311.46   1.000
  S17                     1012.33       0.00       0.00       0.00    1012.23       0.00    1012.23      607.34   388.44   1.000
  S18                        0.00       0.00       0.00       0.00       0.00       0.00       0.00        0.00     0.00   0.000
  S19                        0.00       0.00       0.00       0.00       0.00       0.00       0.00        0.00     0.00   0.000
  S20                     1292.86       0.00       0.00       0.00    1293.18       0.00    1293.18      484.95   498.34   1.000
  S21                      770.39       0.00       0.00       0.00     770.36       0.00     770.36      381.33   362.19   1.000
  S22                        0.00       0.00       0.00       0.00       0.00       0.00       0.00        0.00     0.00   0.000
  S24                      837.07       0.00       0.00       0.00     835.19       0.00     835.19    13202.38  4953.22   0.998
  S25                     1125.76       0.00       0.00       0.00    1126.24       0.00    1126.24      211.17   206.72   1.000
  S26                        0.00       0.00       0.00       0.00       0.00       0.00       0.00        0.00     0.00   0.000
  S28                        0.00       0.00       0.00       0.00       0.00       0.00       0.00        0.00     0.00   0.000
  S29                     1369.60       0.00       0.00       0.00    1371.15       0.00    1371.15       71.99    81.41   1.001
  S30                       22.11       0.00       0.00       0.00      21.88       0.00      21.88       81.55    15.50   0.989
  S31                     1359.91       0.00       0.00       0.00    1361.72       0.00    1361.72       51.06    60.01   1.001
  S32                        0.00       0.00       0.00       0.00       0.00       0.00       0.00        0.00     0.00   0.000
  S33                        0.00       0.00       0.00       0.00       0.00       0.00       0.00        0.00     0.00   0.000
  
  
  ******************
  Node Depth Summary
  ******************
  
  ---------------------------------------------------------------------------------
                                 Average  Maximum  Maximum  Time of Max    Reported
                                   Depth    Depth      HGL   Occurrence   Max Depth
  Node                 Type       Meters   Meters   Meters  days hr:min      Meters
  ---------------------------------------------------------------------------------
  0                    JUNCTION     0.00     0.00  1872.50     0  00:00        0.00
  1                    JUNCTION     0.00     0.00  1762.50     0  00:00        0.00
  2                    JUNCTION     0.00     0.00  1762.50     0  00:00        0.00
  3                    JUNCTION     0.00     0.00  1432.50     0  00:00        0.00
  4                    JUNCTION     0.01     0.06  1955.06   259  03:03        0.06
  5                    JUNCTION     0.02     0.12  1927.62   259  03:01        0.12
  6                    JUNCTION     0.03     0.19  1762.69   262  21:01        0.19
  7                    JUNCTION     0.04     0.22  1790.22   259  03:07        0.22
  8                    JUNCTION     0.50     1.65  1626.65   262  19:03        1.64
  9                    JUNCTION     0.66     2.29  1627.29   262  19:02        2.28
  10                   JUNCTION     0.00     0.02  1707.52   262  19:00        0.02
  11                   JUNCTION     0.23     0.97  1625.97   262  19:05        0.95
  12                   JUNCTION     0.01     0.06  1652.56   259  03:13        0.06
  13                   JUNCTION     0.04     0.19  1680.19   259  03:11        0.19
  14                   JUNCTION     0.70     6.69  1384.19     2  09:02        2.47
  15                   JUNCTION     0.01     0.07  1405.07   254  21:00        0.07
  16                   JUNCTION     0.22     0.91  1570.91   262  21:08        0.91
  17                   JUNCTION     0.43     1.58  1379.08   262  19:02        1.57
  18                   JUNCTION     0.01     0.05  1405.05   235  22:26        0.05
  19                   JUNCTION     0.03     0.18  1680.18   262  21:00        0.18
  20                   JUNCTION     0.05     0.27  1515.27   262  21:08        0.27
  21                   JUNCTION     0.00     0.00  1570.00     0  00:00        0.00
  22                   JUNCTION     0.79     3.80  1106.30   254  21:28        3.76
  23                   JUNCTION     1.09     3.93  1106.43   254  21:26        3.88
  24                   JUNCTION     1.02     3.81  1106.31   254  21:28        3.77
  25                   JUNCTION     0.86     3.80  1106.30   254  21:28        3.76
  26                   JUNCTION     0.65     3.80  1106.30   254  21:28        3.76
  27                   JUNCTION     1.02     3.76  1106.26   254  21:27        3.73
  28                   JUNCTION     0.48     2.12  1104.62   254  21:29        2.10
  29                   JUNCTION    30.34    85.65  1105.65   254  21:29       85.62
  30                   OUTFALL      0.00     0.00  1120.00     0  00:00        0.00
  31                   OUTFALL      0.42     1.89  1081.89   254  21:29        1.87
  32                   OUTFALL      0.56     1.00  1036.00   139  14:48        1.00
  
  
  *******************
  Node Inflow Summary
  *******************
  
  -------------------------------------------------------------------------------------------------
                                  Maximum  Maximum                  Lateral       Total        Flow
                                  Lateral    Total  Time of Max      Inflow      Inflow     Balance
                                   Inflow   Inflow   Occurrence      Volume      Volume       Error
  Node                 Type           LPS      LPS  days hr:min    10^6 ltr    10^6 ltr     Percent
  -------------------------------------------------------------------------------------------------
  0                    JUNCTION      0.00     0.00     0  00:00           0           0       0.000 ltr
  1                    JUNCTION      0.00     0.00     0  00:00           0           0       0.000 ltr
  2                    JUNCTION      0.00     0.00     0  00:00           0           0       0.000 ltr
  3                    JUNCTION      0.00     0.00     0  00:00           0           0       0.000 ltr
  4                    JUNCTION     42.38    42.38   259  03:00        48.7        48.7      -0.137
  5                    JUNCTION    263.34   263.34   259  03:00         374         374       0.000
  6                    JUNCTION    467.05   467.05   262  21:00         499         499       0.003
  7                    JUNCTION    235.56   539.75   259  03:00         325         747       0.008
  8                    JUNCTION    144.48  6399.41   262  19:01         143    1.05e+04      -0.021
  9                    JUNCTION    615.26  8115.85   235  21:24         843    5.33e+03     -48.184
  10                   JUNCTION    252.18   252.18   262  21:00         241         241       0.000
  11                   JUNCTION      0.00  6434.92   262  19:03           0    1.06e+04      -0.004
  12                   JUNCTION      0.00   155.77   259  03:11           0         206       0.002
  13                   JUNCTION     83.42   607.35   259  03:06        87.6         835      -0.006
  14                   JUNCTION    185.05 48106.37   254  21:11         213    2.99e+03     -90.370
  15                   JUNCTION    311.46   311.46   259  03:00         382         382     -86.265
  16                   JUNCTION    389.43  6912.54   262  21:04         609    1.19e+04       0.350
  17                   JUNCTION      0.00 53306.29     2  09:02           0    4.05e+04     -41.692
  18                   JUNCTION      0.00  6931.58   262  21:08           0    1.18e+04      25.988
  19                   JUNCTION    498.34   498.34   262  21:00         485         485      -0.019
  20                   JUNCTION    362.19   858.70   262  21:00         381         866      -0.091
  21                   JUNCTION      0.00     0.00     0  00:00           0           0       0.000 ltr
  22                   JUNCTION      0.00  6420.51   221  17:55           0    1.64e+04       0.010
  23                   JUNCTION   4953.26 42910.05     2  09:02    1.32e+04    8.26e+04      -0.072
  24                   JUNCTION    207.06 15194.00   262  19:03         212    4.73e+04       0.000
  25                   JUNCTION      0.00 13909.26   221  17:55           0    3.92e+04      -0.000
  26                   JUNCTION      0.00  8411.14   221  17:53           0    4.01e+04      -0.000
  27                   JUNCTION      0.00 22091.55   254  21:27           0    4.67e+04       0.000
  28                   JUNCTION     81.41 22156.43   254  21:27          72    4.37e+04       0.000
  29                   JUNCTION     15.50  4799.33   254  21:29        81.5    4.02e+04       0.040
  30                   OUTFALL      60.01    60.01   259  03:00        51.1        51.1       0.000
  31                   OUTFALL       0.00 22130.64   254  21:29           0    4.37e+04       0.000
  32                   OUTFALL       0.00  4799.07   254  21:29           0    4.01e+04       0.000
  
  
  **********************
  Node Surcharge Summary
  **********************
  
  Surcharging occurs when water rises above the top of the highest conduit.
  ---------------------------------------------------------------------
                                               Max. Height   Min. Depth
                                   Hours       Above Crown    Below Rim
  Node                 Type      Surcharged         Meters       Meters
  ---------------------------------------------------------------------
  14                   JUNCTION        0.01          2.693        0.000
  29                   JUNCTION     7879.85         81.654        0.000
  
  
  *********************
  Node Flooding Summary
  *********************
  
  No nodes were flooded.
  
  
  ***********************
  Outfall Loading Summary
  ***********************
  
  -----------------------------------------------------------
                         Flow       Avg       Max       Total
                         Freq      Flow      Flow      Volume
  Outfall Node           Pcnt       LPS       LPS    10^6 ltr
  -----------------------------------------------------------
  30                    81.68      3.13     60.01      51.064
  31                    99.74   1944.30  22130.64   43725.754
  32                    99.70   1673.77   4799.07   40140.551
  -----------------------------------------------------------
  System                93.71   3621.19   4799.07   83917.369
  
  
  ********************
  Link Flow Summary
  ********************
  
  -----------------------------------------------------------------------------
                                 Maximum  Time of Max   Maximum    Max/    Max/
                                  |Flow|   Occurrence   |Veloc|    Full    Full
  Link                 Type          LPS  days hr:min     m/sec    Flow   Depth
  -----------------------------------------------------------------------------
  0                    CONDUIT      0.00     0  00:00      0.00    0.00    0.00
  1                    CONDUIT      0.00     0  00:00      0.00    0.00    0.00
  2                    CONDUIT      0.00     0  00:00      0.00    0.00    0.01
  3                    CONDUIT  47942.11   254  21:11     16.32    0.00    0.50
  4                    CONDUIT      0.93   254  21:10      0.06    0.00    0.01
  5                    CONDUIT      0.00     0  00:00      0.00    0.00    0.50
  6                    CONDUIT  53306.29     2  09:02      7.08   86.57    0.67
  7                    CONDUIT     41.75   259  03:04      0.35    0.00    0.03
  8                    CONDUIT    262.90   259  03:01      1.42    0.00    0.04
  9                    CONDUIT    535.50   259  03:08      2.19    0.01    0.05
  10                   CONDUIT    464.44   262  21:01      0.14    0.00    0.31
  11                   CONDUIT   6237.57   262  19:01      1.01   22.65    0.49
  12                   CONDUIT   7898.49   235  21:24      6.65    0.00    0.29
  13                   CONDUIT    155.77   259  03:11      1.37    0.00    0.03
  14                   CONDUIT    449.54   259  03:11      0.63    0.00    0.14
  15                   CONDUIT     66.31   259  03:13      0.07    0.00    0.21
  16                   CONDUIT   6387.19   262  19:03      3.27   10.37    0.33
  17                   CONDUIT     89.41   259  03:13      0.27    0.00    0.13
  18                   CONDUIT   6398.21   262  19:06      2.89    0.13    0.23
  19                   CONDUIT   6931.58   262  21:08     10.01    0.07    0.12
  20                   CONDUIT  34106.70   262  18:57     34.83    0.00    0.20
  21                   CONDUIT  42910.05     2  09:02     23.30    0.51    0.67
  22                   CONDUIT  15015.62   262  19:03      1.47   24.39    0.97
  23                   CONDUIT  13718.43   254  21:19      1.25   26.50    0.96
  24                   CONDUIT    496.88   262  21:00      1.84    0.00    0.06
  25                   CONDUIT    840.02   262  21:08      0.17    0.01    0.50
  26                   CONDUIT      0.00     0  00:00      0.00    0.00    0.03
  27                   CONDUIT   6263.29   221  17:55      1.29   12.10    0.95
  28                   CONDUIT   2329.59   235  21:45      0.89    3.78    0.95
  29                   CONDUIT  13909.26   221  17:55      1.89   22.59    0.95
  30                   CONDUIT   7410.64   221  17:55      2.79   12.04    0.95
  31                   CONDUIT   8909.05   254  21:32      0.72   14.47    0.95
  32                   CONDUIT   4789.05   254  21:29      2.77    0.10    0.97
  33                   CONDUIT  22089.82   254  21:27      2.23   62.14    0.74
  34                   CONDUIT      0.00     0  00:00      0.00    0.00    0.47
  35                   CONDUIT  22130.64   254  21:29      3.51    0.55    0.50
  36                   CONDUIT   4799.07   254  21:29      6.11    2.08    1.00
  
  
  ***************************
  Flow Classification Summary
  ***************************
  
  -------------------------------------------------------------------------------------
                      Adjusted    ---------- Fraction of Time in Flow Class ---------- 
                       /Actual         Up    Down  Sub   Sup   Up    Down  Norm  Inlet 
  Conduit               Length    Dry  Dry   Dry   Crit  Crit  Crit  Crit  Ltd   Ctrl  
  -------------------------------------------------------------------------------------
  0                       1.00   1.00  0.00  0.00  0.00  0.00  0.00  0.00  0.00  0.00
  1                       1.00   1.00  0.00  0.00  0.00  0.00  0.00  0.00  0.00  0.00
  2                       1.00   0.83  0.17  0.00  0.00  0.00  0.00  0.00  0.00  0.00
  3                       1.00   0.00  0.83  0.00  0.17  0.00  0.00  0.00  0.99  0.00
  4                       1.00   0.91  0.00  0.00  0.09  0.00  0.00  0.00  0.03  0.00
  5                       1.00   0.00  1.00  0.00  0.00  0.00  0.00  0.00  0.00  0.00
  6                       1.00   0.00  0.00  0.00  1.00  0.00  0.00  0.00  0.00  0.00
  7                       1.00   0.00  0.02  0.00  0.97  0.00  0.00  0.00  0.99  0.00
  8                       1.00   0.00  0.00  0.00  0.64  0.35  0.00  0.00  0.99  0.00
  9                       1.00   0.00  0.00  0.00  0.31  0.68  0.00  0.00  0.00  0.00
  10                      1.00   0.00  0.00  0.00  1.00  0.00  0.00  0.00  0.99  0.00
  11                      1.00   0.00  0.00  0.00  1.00  0.00  0.00  0.00  0.00  0.00
  12                      1.00   0.00  0.67  0.00  0.33  0.00  0.00  0.00  0.99  0.00
  13                      1.00   0.00  0.00  0.00  0.66  0.34  0.00  0.00  0.00  0.00
  14                      1.00   0.00  0.00  0.00  1.00  0.00  0.00  0.00  0.99  0.00
  15                      1.00   0.00  0.01  0.00  0.98  0.00  0.00  0.00  0.99  0.00
  16                      1.00   0.00  0.00  0.00  1.00  0.00  0.00  0.00  0.00  0.00
  17                      1.00   0.00  0.01  0.00  0.98  0.00  0.00  0.00  0.99  0.00
  18                      1.00   0.00  0.00  0.00  0.87  0.13  0.00  0.00  0.11  0.00
  19                      1.00   0.00  0.00  0.00  0.00  1.00  0.00  0.00  0.00  0.00
  20                      1.00   0.00  0.91  0.00  0.08  0.00  0.00  0.00  0.97  0.00
  21                      1.00   0.00  0.00  0.00  1.00  0.00  0.00  0.00  0.99  0.00
  22                      1.00   0.00  0.00  0.00  1.00  0.00  0.00  0.00  0.00  0.00
  23                      1.00   0.00  0.00  0.00  1.00  0.00  0.00  0.00  0.00  0.00
  24                      1.00   0.00  0.00  0.00  0.67  0.32  0.00  0.00  0.99  0.00
  25                      1.00   0.00  0.00  0.00  1.00  0.00  0.00  0.00  0.99  0.00
  26                      1.00   0.00  1.00  0.00  0.00  0.00  0.00  0.00  0.00  0.00
  27                      1.00   0.00  0.00  0.00  1.00  0.00  0.00  0.00  0.00  0.00
  28                      1.00   0.00  0.00  0.00  1.00  0.00  0.00  0.00  0.00  0.00
  29                      1.00   0.00  0.00  0.00  1.00  0.00  0.00  0.00  0.00  0.00
  30                      1.00   0.00  0.00  0.00  1.00  0.00  0.00  0.00  0.00  0.00
  31                      1.00   0.00  0.00  0.00  1.00  0.00  0.00  0.00  0.00  0.00
  32                      1.00   0.00  0.00  0.00  1.00  0.00  0.00  0.00  0.88  0.00
  33                      1.00   0.00  0.00  0.00  1.00  0.00  0.00  0.00  0.00  0.00
  34                      1.00   0.00  1.00  0.00  0.00  0.00  0.00  0.00  0.00  0.00
  35                      1.00   0.00  0.00  0.00  0.99  0.01  0.00  0.00  0.00  0.00
  36                      1.00   0.00  0.00  0.00  1.00  0.00  0.00  0.00  0.00  0.00
  
  
  *************************
  Conduit Surcharge Summary
  *************************
  
  ----------------------------------------------------------------------------
                                                           Hours        Hours 
                         --------- Hours Full --------   Above Full   Capacity
  Conduit                Both Ends  Upstream  Dnstream   Normal Flow   Limited
  ----------------------------------------------------------------------------
  3                           0.01      0.01      1.87      0.01         0.01
  6                           0.01      0.01      0.01   2306.45         0.01
  11                          0.01      0.01      0.01   3239.38         0.01
  16                          0.01      0.01      0.01   1212.22         0.01
  22                          0.01      0.01      0.01   4358.96         0.01
  23                          0.01      0.01      0.01   4346.72         0.01
  27                          0.01      0.01      0.01   2908.15         0.01
  28                          0.01      0.01      0.01   2531.56         0.01
  29                          0.01      0.01      0.01   4729.20         0.01
  30                          0.01      0.01      0.01   3397.77         0.01
  31                          0.01      0.01      0.01    660.21         0.01
  32                          0.01      0.01   7879.85      0.01         0.01
  33                          0.01      0.01      0.01   4855.25         0.01
  36                       1033.00   1033.00   7879.65   1414.64         0.01
  

  Analysis begun on:  Tue Apr 14 18:03:17 2020
  Analysis ended on:  Tue Apr 14 18:08:08 2020
  Total elapsed time: 00:04:51