
  EPA STORM WATER MANAGEMENT MODEL - VERSION 5.1 (Build 5.1.013)
  --------------------------------------------------------------

  Template input file for Gottesacker karst system.  
  Based on input files created by Zhao Chen. 
  Modified by Chloe Fandel: 
  
  WARNING 08: elevation drop exceeds length for Conduit 2
  WARNING 04: minimum elevation drop used for Conduit 4
  WARNING 04: minimum elevation drop used for Conduit 11
  WARNING 04: minimum elevation drop used for Conduit 18
  WARNING 08: elevation drop exceeds length for Conduit 20
  
  *********************************************************
  NOTE: The summary statistics displayed in this report are
  based on results found at every computational time step,  
  not just on results from each reporting time step.
  *********************************************************
  
  ****************
  Analysis Options
  ****************
  Flow Units ............... LPS
  Process Models:
    Rainfall/Runoff ........ YES
    RDII ................... NO
    Snowmelt ............... NO
    Groundwater ............ NO
    Flow Routing ........... YES
    Ponding Allowed ........ NO
    Water Quality .......... NO
  Infiltration Method ...... HORTON
  Flow Routing Method ...... DYNWAVE
  Surcharge Method ......... EXTRAN
  Starting Date ............ 11/14/2013 00:00:00
  Ending Date .............. 10/11/2014 00:00:00
  Antecedent Dry Days ...... 0.0
  Report Time Step ......... 01:00:00
  Wet Time Step ............ 00:30:00
  Dry Time Step ............ 01:00:00
  Routing Time Step ........ 30.00 sec
  Variable Time Step ....... YES
  Maximum Trials ........... 8
  Number of Threads ........ 4
  Head Tolerance ........... 0.001524 m
  
  
  **************************        Volume         Depth
  Runoff Quantity Continuity     hectare-m            mm
  **************************     ---------       -------
  Total Precipitation ......      1918.244       705.626
  Evaporation Loss .........         0.000         0.000
  Infiltration Loss ........         0.000         0.000
  Surface Runoff ...........      1915.103       704.470
  Final Storage ............         3.433         1.263
  Continuity Error (%) .....        -0.015
  
  
  **************************        Volume        Volume
  Flow Routing Continuity        hectare-m      10^6 ltr
  **************************     ---------     ---------
  Dry Weather Inflow .......         0.000         0.000
  Wet Weather Inflow .......      1915.095     19151.151
  Groundwater Inflow .......         0.000         0.000
  RDII Inflow ..............         0.000         0.000
  External Inflow ..........         1.160        11.605
  External Outflow .........      2494.948     24949.738
  Flooding Loss ............         0.000         0.000
  Evaporation Loss .........         0.000         0.000
  Exfiltration Loss ........         0.000         0.000
  Initial Stored Volume ....         0.000         0.000
  Final Stored Volume ......         0.298         2.983
  Continuity Error (%) .....       -30.215
  
  
  *************************
  Highest Continuity Errors
  *************************
  Node 9 (-6.32%)
  
  
  ***************************
  Time-Step Critical Elements
  ***************************
  Link 24 (78.68%)
  Link 18 (2.24%)
  Link 22 (1.99%)
  
  
  ********************************
  Highest Flow Instability Indexes
  ********************************
  Link 11 (116)
  Link 12 (110)
  Link 6 (31)
  Link 24 (14)
  Link 7 (9)
  
  
  *************************
  Routing Time Step Summary
  *************************
  Minimum Time Step           :     2.15 sec
  Average Time Step           :    18.06 sec
  Maximum Time Step           :    30.00 sec
  Percent in Steady State     :     0.30
  Average Iterations per Step :     4.15
  Percent Not Converging      :    26.98
  
  
  ***************************
  Subcatchment Runoff Summary
  ***************************
  
  ------------------------------------------------------------------------------------------------------------------------------
                            Total      Total      Total      Total     Imperv       Perv      Total       Total     Peak  Runoff
                           Precip      Runon       Evap      Infil     Runoff     Runoff     Runoff      Runoff   Runoff   Coeff
  Subcatchment                 mm         mm         mm         mm         mm         mm         mm    10^6 ltr      LPS
  ------------------------------------------------------------------------------------------------------------------------------
  S1                         0.00       0.00       0.00       0.00       0.00       0.00       0.00        0.00     0.00   0.000
  S2                         0.00       0.00       0.00       0.00       0.00       0.00       0.00        0.00     0.00   0.000
  S3                         0.00       0.00       0.00       0.00       0.00       0.00       0.00        0.00     0.00   0.000
  S4                         0.00       0.00       0.00       0.00       0.00       0.00       0.00        0.00     0.00   0.000
  S5                      1037.52       0.00       0.00       0.00    1038.15       0.00    1038.15       72.67    62.44   1.001
  S6                      1025.22       0.00       0.00       0.00    1025.31       0.00    1025.31      371.68   262.35   1.000
  S7                      1067.22       0.00       0.00       0.00    1067.44       0.00    1067.44      296.22   218.08   1.000
  S8                      1385.10       0.00       0.00       0.00    1385.52       0.00    1385.52      498.79   466.98   1.000
  S9                      1036.22       0.00       0.00       0.00    1036.14       0.00    1036.14      841.87   614.86   1.000
  S10                     1303.86       0.00       0.00       0.00    1304.83       0.00    1304.83      123.96   153.90   1.001
  S11                     1323.24       0.00       0.00       0.00    1324.30       0.00    1324.30      115.88   125.53   1.001
  S12                     1003.45       0.00       0.00       0.00    1004.05       0.00    1004.05       80.32    68.42   1.001
  S13                     1565.06       0.00       0.00       0.00    1565.91       0.00    1565.91      246.63   210.79   1.001
  S14                     1589.63       0.00       0.00       0.00    1590.24       0.00    1590.24      381.66   311.46   1.000
  S15                     1292.86       0.00       0.00       0.00    1293.18       0.00    1293.18      484.95   498.34   1.000
  S16                      770.39       0.00       0.00       0.00     770.36       0.00     770.36      381.33   362.19   1.000
  S17                        0.00       0.00       0.00       0.00       0.00       0.00       0.00        0.00     0.00   0.000
  S18                     1447.74       0.00       0.00       0.00    1447.95       0.00    1447.95      908.60   777.54   1.000
  S19                     1445.01       0.00       0.00       0.00    1445.95       0.00    1445.95      195.20   205.61   1.001
  S20                      848.36       0.00       0.00       0.00     846.43       0.00     846.43    13936.51  5208.68   0.998
  S21                     1369.60       0.00       0.00       0.00    1371.06       0.00    1371.06       82.26    92.06   1.001
  S22                       22.11       0.00       0.00       0.00      21.88       0.00      21.88       81.55    15.50   0.989
  S23                     1359.91       0.00       0.00       0.00    1361.72       0.00    1361.72       51.06    60.01   1.001
  S24                        0.00       0.00       0.00       0.00       0.00       0.00       0.00        0.00     0.00   0.000
  S25                        0.00       0.00       0.00       0.00       0.00       0.00       0.00        0.00     0.00   0.000
  
  
  ******************
  Node Depth Summary
  ******************
  
  ---------------------------------------------------------------------------------
                                 Average  Maximum  Maximum  Time of Max    Reported
                                   Depth    Depth      HGL   Occurrence   Max Depth
  Node                 Type       Meters   Meters   Meters  days hr:min      Meters
  ---------------------------------------------------------------------------------
  0                    JUNCTION     0.00     0.00  1872.50     0  00:00        0.00
  1                    JUNCTION     0.00     0.00  1735.00     0  00:00        0.00
  2                    JUNCTION     0.00     0.00  1762.50     0  00:00        0.00
  3                    JUNCTION     0.00     0.00  1432.50     0  00:00        0.00
  4                    JUNCTION     0.01     0.07  1955.07   259  03:02        0.07
  5                    JUNCTION     0.01     0.08  1927.58   259  03:00        0.08
  6                    JUNCTION     0.05     0.22  1817.72   259  03:06        0.22
  7                    JUNCTION     0.03     0.19  1762.69   262  21:01        0.19
  8                    JUNCTION     5.06    82.34  1707.34   262  21:00       82.34
  9                    JUNCTION     5.19    82.31  1707.31   262  21:00       82.31
  10                   JUNCTION     0.00     0.02  1707.52   262  19:00        0.02
  11                   JUNCTION     0.05     0.31  1680.31   259  03:14        0.30
  12                   JUNCTION     0.13     0.47  1377.97   259  04:06        0.47
  13                   JUNCTION     0.07     0.38  1377.88   259  03:26        0.38
  14                   JUNCTION     0.03     0.19  1680.19   262  21:01        0.19
  15                   JUNCTION     0.12     0.93  1543.43   262  21:23        0.90
  16                   JUNCTION     0.00     0.00  1570.00     0  00:00        0.00
  17                   JUNCTION     0.13     0.37  1432.87   262  21:05        0.37
  18                   JUNCTION     3.94   184.80  1314.80   259  03:14      183.00
  19                   JUNCTION    13.43   177.59  1280.09   237  07:00      177.57
  20                   JUNCTION    10.09   148.68  1251.18   237  07:00      148.66
  21                   JUNCTION    16.03    23.07  1043.07   259  03:14       23.01
  22                   OUTFALL      0.20     1.00  1121.00   168  21:49        1.00
  23                   OUTFALL      0.36     0.77  1080.77   237  07:00        0.77
  24                   OUTFALL      0.20     0.59  1035.59   259  03:14        0.59
  
  
  *******************
  Node Inflow Summary
  *******************
  
  -------------------------------------------------------------------------------------------------
                                  Maximum  Maximum                  Lateral       Total        Flow
                                  Lateral    Total  Time of Max      Inflow      Inflow     Balance
                                   Inflow   Inflow   Occurrence      Volume      Volume       Error
  Node                 Type           LPS      LPS  days hr:min    10^6 ltr    10^6 ltr     Percent
  -------------------------------------------------------------------------------------------------
  0                    JUNCTION      0.00     0.00     0  00:00           0           0       0.000 ltr
  1                    JUNCTION      0.00     0.00     0  00:00           0           0       0.000 ltr
  2                    JUNCTION      0.00     0.00     0  00:00           0           0       0.000 ltr
  3                    JUNCTION      0.00     0.00     0  00:00           0           0       0.000 ltr
  4                    JUNCTION     63.47    63.47   259  03:00        74.7        74.7      -0.057
  5                    JUNCTION    263.34   263.34   259  03:00         374         374       0.000
  6                    JUNCTION    219.04   545.00   259  03:00         298         748      -0.013
  7                    JUNCTION    467.05   467.05   262  21:00         499         499      -0.049
  8                    JUNCTION    615.26 11918.17   262  18:58         843    7.51e+03      -0.030
  9                    JUNCTION    154.39  6496.83   239  04:56         125    6.17e+03      -5.947
  10                   JUNCTION    125.63   125.63   262  21:00         116         116       0.000
  11                   JUNCTION     69.13  1210.54   259  03:05        82.4    1.16e+03      -0.034
  12                   JUNCTION    210.79   210.79   259  03:00         247         247       0.021
  13                   JUNCTION    311.46  1658.33   259  03:12         382    1.68e+03      -0.046
  14                   JUNCTION    498.34   498.34   262  21:00         485         485      -0.025
  15                   JUNCTION    362.19   858.09   262  21:00         381         866       0.023
  16                   JUNCTION      0.00     0.00     0  00:00           0           0       0.000 ltr
  17                   JUNCTION    777.54  2739.08   262  21:00         909    8.95e+03      -0.013
  18                   JUNCTION    205.61  3054.73   262  19:50         195    9.17e+03      -0.005
  19                   JUNCTION   5208.72  7347.85   237  07:00    1.39e+04    1.89e+04      -0.052
  20                   JUNCTION     92.06  1780.51   237  07:00        82.3    1.11e+04      -0.003
  21                   JUNCTION     15.50  1519.73   259  03:14        81.5    5.92e+03       0.825
  22                   OUTFALL      60.01  5639.12   237  07:00        51.1    7.96e+03       0.000
  23                   OUTFALL       0.00  1780.44   237  07:00           0    1.11e+04       0.000
  24                   OUTFALL       0.00  1519.73   259  03:14           0    5.87e+03       0.000
  
  
  **********************
  Node Surcharge Summary
  **********************
  
  Surcharging occurs when water rises above the top of the highest conduit.
  ---------------------------------------------------------------------
                                               Max. Height   Min. Depth
                                   Hours       Above Crown    Below Rim
  Node                 Type      Surcharged         Meters       Meters
  ---------------------------------------------------------------------
  8                    JUNCTION      334.55         78.345        0.000
  9                    JUNCTION      335.47         78.310        0.000
  18                   JUNCTION      338.12        180.798        0.000
  19                   JUNCTION     2958.75        173.591        0.000
  20                   JUNCTION     3061.55        147.682        0.000
  21                   JUNCTION     7824.87         22.067        0.000
  
  
  *********************
  Node Flooding Summary
  *********************
  
  No nodes were flooded.
  
  
  ***********************
  Outfall Loading Summary
  ***********************
  
  -----------------------------------------------------------
                         Flow       Avg       Max       Total
                         Freq      Flow      Flow      Volume
  Outfall Node           Pcnt       LPS       LPS    10^6 ltr
  -----------------------------------------------------------
  22                    84.72    530.59   5639.12    7957.754
  23                    99.53    490.58   1780.44   11119.116
  24                    97.76    309.80   1519.73    5873.140
  -----------------------------------------------------------
  System                94.00   1330.97   1519.73   24950.010
  
  
  ********************
  Link Flow Summary
  ********************
  
  -----------------------------------------------------------------------------
                                 Maximum  Time of Max   Maximum    Max/    Max/
                                  |Flow|   Occurrence   |Veloc|    Full    Full
  Link                 Type          LPS  days hr:min     m/sec    Flow   Depth
  -----------------------------------------------------------------------------
  0                    CONDUIT      0.00     0  00:00      0.00    0.00    0.00
  1                    CONDUIT      0.00     0  00:00      0.00    0.00    0.06
  2                    CONDUIT      0.00     0  00:00      0.00    0.00    0.00
  3                    CONDUIT      0.00     0  00:00      0.00    0.00    0.06
  4                    CONDUIT    170.42   259  04:18      0.25    0.41    0.11
  5                    CONDUIT     62.92   259  03:02      0.44    0.00    0.04
  6                    CONDUIT    263.30   259  03:00      1.73    0.00    0.04
  7                    CONDUIT    540.19   259  03:06     11.58    0.01    0.07
  8                    CONDUIT    602.85   259  03:11      1.12    0.52    0.65
  9                    CONDUIT   1205.19   259  03:14      2.52    0.01    0.09
  10                   CONDUIT    464.29   262  21:01      0.10    0.00    0.52
  11                   CONDUIT  11447.34   262  18:58      0.91   37.18    1.00
  12                   CONDUIT   6148.22   239  04:56      4.60    0.00    0.50
  13                   CONDUIT   1182.66   262  21:05      2.20    1.00    0.69
  14                   CONDUIT    795.50   262  21:21      1.50    0.79    0.65
  15                   CONDUIT   2733.19   262  21:05      2.04    0.02    0.55
  16                   CONDUIT   1647.86   259  03:26      0.40    0.02    0.55
  17                   CONDUIT   1427.94   262  21:04      1.82    1.85    1.00
  18                   CONDUIT   1735.91   237  07:00      2.21  305.88    1.00
  19                   CONDUIT    496.40   262  21:01      0.72    0.00    0.14
  20                   CONDUIT      0.00     0  00:00      0.00    0.00    0.46
  21                   CONDUIT   1505.16   259  03:14      1.92    1.56    1.00
  22                   CONDUIT   5611.37   237  07:00      7.14    2.96    1.00
  23                   CONDUIT   1780.44   237  07:00      2.42    2.78    0.88
  24                   CONDUIT   1519.73   259  03:14      2.27    0.66    0.80
  
  
  ***************************
  Flow Classification Summary
  ***************************
  
  -------------------------------------------------------------------------------------
                      Adjusted    ---------- Fraction of Time in Flow Class ---------- 
                       /Actual         Up    Down  Sub   Sup   Up    Down  Norm  Inlet 
  Conduit               Length    Dry  Dry   Dry   Crit  Crit  Crit  Crit  Ltd   Ctrl  
  -------------------------------------------------------------------------------------
  0                       1.00   1.00  0.00  0.00  0.00  0.00  0.00  0.00  0.00  0.00
  1                       1.00   0.00  1.00  0.00  0.00  0.00  0.00  0.00  0.00  0.00
  2                       1.00   1.00  0.00  0.00  0.00  0.00  0.00  0.00  0.00  0.00
  3                       1.00   0.00  1.00  0.00  0.00  0.00  0.00  0.00  0.00  0.00
  4                       1.00   0.00  0.00  0.00  1.00  0.00  0.00  0.00  0.00  0.00
  5                       1.00   0.00  0.01  0.00  0.98  0.00  0.00  0.00  0.99  0.00
  6                       1.00   0.00  0.10  0.00  0.25  0.65  0.00  0.00  0.74  0.00
  7                       1.00   0.00  0.00  0.00  0.37  0.62  0.00  0.00  0.04  0.00
  8                       1.00   0.00  0.00  0.00  1.00  0.00  0.00  0.00  0.96  0.00
  9                       1.00   0.00  0.00  0.00  0.75  0.25  0.00  0.00  0.99  0.00
  10                      1.00   0.00  0.00  0.00  0.99  0.00  0.00  0.00  0.99  0.00
  11                      1.00   0.00  0.00  0.00  1.00  0.00  0.00  0.00  0.00  0.00
  12                      1.00   0.00  0.59  0.00  0.40  0.00  0.00  0.00  0.97  0.00
  13                      1.00   0.00  0.00  0.00  0.19  0.81  0.00  0.00  0.00  0.00
  14                      1.00   0.00  0.00  0.00  0.99  0.00  0.00  0.00  0.88  0.00
  15                      1.00   0.00  0.00  0.00  0.80  0.20  0.00  0.00  0.99  0.00
  16                      1.00   0.00  0.00  0.00  1.00  0.00  0.00  0.00  0.99  0.00
  17                      1.00   0.00  0.00  0.00  1.00  0.00  0.00  0.00  0.84  0.00
  18                      1.00   0.00  0.00  0.00  1.00  0.00  0.00  0.00  0.00  0.00
  19                      1.00   0.00  0.00  0.00  1.00  0.00  0.00  0.00  0.99  0.00
  20                      1.00   0.00  1.00  0.00  0.00  0.00  0.00  0.00  0.00  0.00
  21                      1.00   0.00  0.00  0.00  1.00  0.00  0.00  0.00  0.91  0.00
  22                      1.00   0.00  0.57  0.00  0.43  0.00  0.00  0.00  0.33  0.00
  23                      1.00   0.00  0.00  0.00  1.00  0.00  0.00  0.00  0.00  0.00
  24                      1.00   0.00  0.01  0.00  0.99  0.00  0.00  0.00  0.19  0.00
  
  
  *************************
  Conduit Surcharge Summary
  *************************
  
  ----------------------------------------------------------------------------
                                                           Hours        Hours 
                         --------- Hours Full --------   Above Full   Capacity
  Conduit                Both Ends  Upstream  Dnstream   Normal Flow   Limited
  ----------------------------------------------------------------------------
  8                           0.01      0.01    811.35      0.01         0.01
  10                          0.01      0.01    334.77      0.01         0.01
  11                        334.41    334.77    334.50   1877.38        52.85
  12                          0.01      0.01    334.82      0.01         0.01
  13                          0.01    811.35      0.01      1.25         0.01
  15                          0.01      0.01    338.12      0.01         0.01
  16                          0.01      0.01   2958.74      0.01         0.01
  17                        638.65    638.65   4561.59     31.21        32.11
  18                       3061.49   4561.59   3061.49   7618.79      3061.49
  21                        638.65    638.65   7824.87    203.85       212.11
  22                         81.61     81.61   5091.62    254.77         0.01
  23                          0.01   3061.48      0.01   2637.26         0.01
  24                          0.01      0.01   7822.92      0.01         0.01
  

  Analysis begun on:  Wed Apr 15 03:47:28 2020
  Analysis ended on:  Wed Apr 15 03:48:51 2020
  Total elapsed time: 00:01:23