
  EPA STORM WATER MANAGEMENT MODEL - VERSION 5.1 (Build 5.1.013)
  --------------------------------------------------------------

  Template input file for Gottesacker karst system.  
  Based on input files created by Zhao Chen. 
  Modified by Chloe Fandel: 
  
  WARNING 08: elevation drop exceeds length for Conduit 2
  WARNING 04: minimum elevation drop used for Conduit 4
  WARNING 04: minimum elevation drop used for Conduit 11
  WARNING 04: minimum elevation drop used for Conduit 18
  WARNING 08: elevation drop exceeds length for Conduit 20
  
  *********************************************************
  NOTE: The summary statistics displayed in this report are
  based on results found at every computational time step,  
  not just on results from each reporting time step.
  *********************************************************
  
  ****************
  Analysis Options
  ****************
  Flow Units ............... LPS
  Process Models:
    Rainfall/Runoff ........ YES
    RDII ................... NO
    Snowmelt ............... NO
    Groundwater ............ NO
    Flow Routing ........... YES
    Ponding Allowed ........ NO
    Water Quality .......... NO
  Infiltration Method ...... HORTON
  Flow Routing Method ...... DYNWAVE
  Surcharge Method ......... EXTRAN
  Starting Date ............ 11/14/2013 00:00:00
  Ending Date .............. 10/11/2014 00:00:00
  Antecedent Dry Days ...... 0.0
  Report Time Step ......... 01:00:00
  Wet Time Step ............ 00:30:00
  Dry Time Step ............ 01:00:00
  Routing Time Step ........ 30.00 sec
  Variable Time Step ....... YES
  Maximum Trials ........... 8
  Number of Threads ........ 4
  Head Tolerance ........... 0.001524 m
  
  
  **************************        Volume         Depth
  Runoff Quantity Continuity     hectare-m            mm
  **************************     ---------       -------
  Total Precipitation ......      1918.244       705.626
  Evaporation Loss .........         0.000         0.000
  Infiltration Loss ........         0.000         0.000
  Surface Runoff ...........      1915.103       704.470
  Final Storage ............         3.433         1.263
  Continuity Error (%) .....        -0.015
  
  
  **************************        Volume        Volume
  Flow Routing Continuity        hectare-m      10^6 ltr
  **************************     ---------     ---------
  Dry Weather Inflow .......         0.000         0.000
  Wet Weather Inflow .......      1915.085     19151.050
  Groundwater Inflow .......         0.000         0.000
  RDII Inflow ..............         0.000         0.000
  External Inflow ..........         1.171        11.710
  External Outflow .........      2446.620     24466.456
  Flooding Loss ............        70.471       704.715
  Evaporation Loss .........         0.000         0.000
  Exfiltration Loss ........         0.000         0.000
  Initial Stored Volume ....         0.000         0.000
  Final Stored Volume ......         1.408        14.083
  Continuity Error (%) .....       -31.428
  
  
  *************************
  Highest Continuity Errors
  *************************
  Node 9 (-35.91%)
  Node 15 (27.79%)
  Node 17 (1.62%)
  
  
  ***************************
  Time-Step Critical Elements
  ***************************
  Link 24 (83.90%)
  Link 18 (2.26%)
  
  
  ********************************
  Highest Flow Instability Indexes
  ********************************
  Link 12 (105)
  Link 11 (83)
  Link 6 (25)
  Link 24 (8)
  Link 7 (4)
  
  
  *************************
  Routing Time Step Summary
  *************************
  Minimum Time Step           :     0.69 sec
  Average Time Step           :    16.74 sec
  Maximum Time Step           :    30.00 sec
  Percent in Steady State     :     0.30
  Average Iterations per Step :     4.48
  Percent Not Converging      :    37.13
  
  
  ***************************
  Subcatchment Runoff Summary
  ***************************
  
  ------------------------------------------------------------------------------------------------------------------------------
                            Total      Total      Total      Total     Imperv       Perv      Total       Total     Peak  Runoff
                           Precip      Runon       Evap      Infil     Runoff     Runoff     Runoff      Runoff   Runoff   Coeff
  Subcatchment                 mm         mm         mm         mm         mm         mm         mm    10^6 ltr      LPS
  ------------------------------------------------------------------------------------------------------------------------------
  S1                         0.00       0.00       0.00       0.00       0.00       0.00       0.00        0.00     0.00   0.000
  S2                         0.00       0.00       0.00       0.00       0.00       0.00       0.00        0.00     0.00   0.000
  S3                         0.00       0.00       0.00       0.00       0.00       0.00       0.00        0.00     0.00   0.000
  S4                         0.00       0.00       0.00       0.00       0.00       0.00       0.00        0.00     0.00   0.000
  S5                      1037.52       0.00       0.00       0.00    1038.15       0.00    1038.15       72.67    62.44   1.001
  S6                      1025.22       0.00       0.00       0.00    1025.31       0.00    1025.31      371.68   262.35   1.000
  S7                      1067.22       0.00       0.00       0.00    1067.44       0.00    1067.44      296.22   218.08   1.000
  S8                      1385.10       0.00       0.00       0.00    1385.52       0.00    1385.52      498.79   466.98   1.000
  S9                      1036.22       0.00       0.00       0.00    1036.14       0.00    1036.14      841.87   614.86   1.000
  S10                     1303.86       0.00       0.00       0.00    1304.83       0.00    1304.83      123.96   153.90   1.001
  S11                     1323.24       0.00       0.00       0.00    1324.30       0.00    1324.30      115.88   125.53   1.001
  S12                     1003.45       0.00       0.00       0.00    1004.05       0.00    1004.05       80.32    68.42   1.001
  S13                     1565.06       0.00       0.00       0.00    1565.91       0.00    1565.91      246.63   210.79   1.001
  S14                     1589.63       0.00       0.00       0.00    1590.24       0.00    1590.24      381.66   311.46   1.000
  S15                     1292.86       0.00       0.00       0.00    1293.18       0.00    1293.18      484.95   498.34   1.000
  S16                      770.39       0.00       0.00       0.00     770.36       0.00     770.36      381.33   362.19   1.000
  S17                        0.00       0.00       0.00       0.00       0.00       0.00       0.00        0.00     0.00   0.000
  S18                     1447.74       0.00       0.00       0.00    1447.95       0.00    1447.95      908.60   777.54   1.000
  S19                     1445.01       0.00       0.00       0.00    1445.95       0.00    1445.95      195.20   205.61   1.001
  S20                      848.36       0.00       0.00       0.00     846.43       0.00     846.43    13936.51  5208.68   0.998
  S21                     1369.60       0.00       0.00       0.00    1371.06       0.00    1371.06       82.26    92.06   1.001
  S22                       22.11       0.00       0.00       0.00      21.88       0.00      21.88       81.55    15.50   0.989
  S23                     1359.91       0.00       0.00       0.00    1361.72       0.00    1361.72       51.06    60.01   1.001
  S24                        0.00       0.00       0.00       0.00       0.00       0.00       0.00        0.00     0.00   0.000
  S25                        0.00       0.00       0.00       0.00       0.00       0.00       0.00        0.00     0.00   0.000
  
  
  ******************
  Node Depth Summary
  ******************
  
  ---------------------------------------------------------------------------------
                                 Average  Maximum  Maximum  Time of Max    Reported
                                   Depth    Depth      HGL   Occurrence   Max Depth
  Node                 Type       Meters   Meters   Meters  days hr:min      Meters
  ---------------------------------------------------------------------------------
  0                    JUNCTION     0.00     0.00  1872.50     0  00:00        0.00
  1                    JUNCTION     0.00     0.00  1735.00     0  00:00        0.00
  2                    JUNCTION     0.00     0.00  1762.50     0  00:00        0.00
  3                    JUNCTION     0.00     0.00  1432.50     0  00:00        0.00
  4                    JUNCTION     0.01     0.07  1955.07   259  03:02        0.07
  5                    JUNCTION     0.01     0.08  1927.58   259  03:00        0.08
  6                    JUNCTION     0.05     0.23  1817.73   259  03:06        0.23
  7                    JUNCTION     0.04     0.19  1762.69   262  21:01        0.19
  8                    JUNCTION     0.19    12.16  1637.16   237  00:51       11.78
  9                    JUNCTION     5.71    82.19  1707.19   237  05:49       82.17
  10                   JUNCTION     0.00     0.02  1707.52   237  06:09        0.02
  11                   JUNCTION     0.04     0.17  1680.17   259  03:13        0.17
  12                   JUNCTION     0.14     0.45  1377.95   259  04:09        0.44
  13                   JUNCTION     0.06     0.27  1377.77   259  03:28        0.27
  14                   JUNCTION     0.07     0.60  1680.60   237  07:37        0.44
  15                   JUNCTION     0.66   204.00  1746.50   237  05:50      199.91
  16                   JUNCTION     0.38   116.00  1686.00   237  05:58       66.50
  17                   JUNCTION     2.39   204.00  1636.50   237  00:51      204.00
  18                   JUNCTION     0.20     0.67  1130.67   237  07:03        0.67
  19                   JUNCTION    11.12    81.24  1183.74   237  07:00       81.21
  20                   JUNCTION     8.18    67.27  1169.77   237  07:01       67.24
  21                   JUNCTION    17.13    60.21  1080.21   237  07:05       60.15
  22                   OUTFALL      0.18     1.00  1121.00   237  06:34        1.00
  23                   OUTFALL      0.35     0.64  1080.64   237  07:01        0.64
  24                   OUTFALL      0.26     1.00  1036.00   236  23:30        1.00
  
  
  *******************
  Node Inflow Summary
  *******************
  
  -------------------------------------------------------------------------------------------------
                                  Maximum  Maximum                  Lateral       Total        Flow
                                  Lateral    Total  Time of Max      Inflow      Inflow     Balance
                                   Inflow   Inflow   Occurrence      Volume      Volume       Error
  Node                 Type           LPS      LPS  days hr:min    10^6 ltr    10^6 ltr     Percent
  -------------------------------------------------------------------------------------------------
  0                    JUNCTION      0.00     0.00     0  00:00           0           0       0.000 ltr
  1                    JUNCTION      0.00     0.00     0  00:00           0           0       0.000 ltr
  2                    JUNCTION      0.00     0.00     0  00:00           0           0       0.000 ltr
  3                    JUNCTION      0.00     0.00     0  00:00           0           0       0.000 ltr
  4                    JUNCTION     63.47    63.47   259  03:00        74.7        74.7      -0.061
  5                    JUNCTION    263.34   263.34   259  03:00         374         374       0.000
  6                    JUNCTION    219.04   544.97   259  03:00         298         747      -0.022
  7                    JUNCTION    467.05   467.05   262  21:00         499         499      -0.057
  8                    JUNCTION    615.26  6789.17   237  06:24         843    7.26e+03      -0.076
  9                    JUNCTION    154.39 12034.14   237  06:23         125    4.46e+03     -26.424
  10                   JUNCTION    125.63   125.63   262  21:00         116         116       0.000
  11                   JUNCTION     69.13   608.05   259  03:05        82.4         830      -0.034
  12                   JUNCTION    210.79   210.79   259  03:00         247         247       0.020
  13                   JUNCTION    311.46   805.08   259  03:09         382     1.1e+03      -0.099
  14                   JUNCTION    498.34  6098.37   237  07:37         485         486      -0.149
  15                   JUNCTION    362.19755710.02   237  06:35         381    2.34e+03      38.478
  16                   JUNCTION      0.00 12662.64   237  05:50           0       0.555       0.000
  17                   JUNCTION    777.54146495.70   237  06:00         909    9.34e+03       1.648
  18                   JUNCTION    205.61  3884.50   237  07:01         195    9.53e+03       0.001
  19                   JUNCTION   5208.73  5813.85   237  07:00    1.39e+04    1.62e+04      -0.051
  20                   JUNCTION     92.06  1251.59   237  07:00        82.3    1.02e+04      -0.003
  21                   JUNCTION     15.50  3824.02   237  07:05        81.5    8.43e+03      -0.231
  22                   OUTFALL      60.01  3627.54   237  07:36        51.1    5.84e+03       0.000
  23                   OUTFALL       0.00  1251.43   237  07:01           0    1.02e+04       0.000
  24                   OUTFALL       0.00  3823.26   237  07:05           0    8.45e+03       0.000
  
  
  **********************
  Node Surcharge Summary
  **********************
  
  Surcharging occurs when water rises above the top of the highest conduit.
  ---------------------------------------------------------------------
                                               Max. Height   Min. Depth
                                   Hours       Above Crown    Below Rim
  Node                 Type      Surcharged         Meters       Meters
  ---------------------------------------------------------------------
  8                    JUNCTION        6.76          8.162        0.000
  9                    JUNCTION     1298.51         78.190        0.000
  15                   JUNCTION       23.70        200.000        0.000
  16                   JUNCTION       22.23        115.002        0.000
  17                   JUNCTION       42.81        200.000        0.000
  19                   JUNCTION     2668.11         77.242        0.000
  20                   JUNCTION     2757.18         66.266        0.000
  21                   JUNCTION     7542.38         56.207        0.000
  
  
  *********************
  Node Flooding Summary
  *********************
  
  Flooding refers to all water that overflows a node, whether it ponds or not.
  --------------------------------------------------------------------------
                                                             Total   Maximum
                                 Maximum   Time of Max       Flood    Ponded
                        Hours       Rate    Occurrence      Volume     Depth
  Node                 Flooded       LPS   days hr:min    10^6 ltr    Meters
  --------------------------------------------------------------------------
  15                      1.08 198102.84    237  06:16     532.193   200.000
  17                      7.71  76207.27    237  06:02     175.557   200.000
  
  
  ***********************
  Outfall Loading Summary
  ***********************
  
  -----------------------------------------------------------
                         Flow       Avg       Max       Total
                         Freq      Flow      Flow      Volume
  Outfall Node           Pcnt       LPS       LPS    10^6 ltr
  -----------------------------------------------------------
  22                    85.21    424.46   3627.54    5835.669
  23                    99.56    461.92   1251.43   10182.311
  24                    96.06    511.51   3823.26    8448.854
  -----------------------------------------------------------
  System                93.61   1397.89   3823.26   24466.834
  
  
  ********************
  Link Flow Summary
  ********************
  
  -----------------------------------------------------------------------------
                                 Maximum  Time of Max   Maximum    Max/    Max/
                                  |Flow|   Occurrence   |Veloc|    Full    Full
  Link                 Type          LPS  days hr:min     m/sec    Flow   Depth
  -----------------------------------------------------------------------------
  0                    CONDUIT      0.00     0  00:00      0.00    0.00    0.00
  1                    CONDUIT      0.00     0  00:00      0.00    0.00    0.06
  2                    CONDUIT      0.00     0  00:00      0.00    0.00    0.00
  3                    CONDUIT      0.00     0  00:00      0.00    0.00    0.06
  4                    CONDUIT    167.05   259  04:08      0.30    0.41    0.09
  5                    CONDUIT     62.92   259  03:02      0.43    0.00    0.04
  6                    CONDUIT    263.29   259  03:00      1.64    0.00    0.04
  7                    CONDUIT    540.42   259  03:07     16.52    0.01    0.05
  8                    CONDUIT    257.58   259  03:13      0.86    0.00    0.52
  9                    CONDUIT    346.74   259  03:13      1.28    0.00    0.05
  10                   CONDUIT    464.29   262  21:01      0.07    0.00    0.52
  11                   CONDUIT   2610.82   259  04:58      3.63  531.21    1.00
  12                   CONDUIT  11691.53   237  06:23      1.87    0.00    0.50
  13                   CONDUIT  31396.53   237  05:58      2.84    0.43    1.00
  14                   CONDUIT 130128.16   237  06:03     10.36    2.07    1.00
  15                   CONDUIT   2695.71   237  07:03      3.91    1.18    0.83
  16                   CONDUIT    793.34   259  03:28      0.40    0.01    0.53
  17                   CONDUIT   1080.75   237  07:01      1.55    1.40    0.83
  18                   CONDUIT   1207.03   237  07:00      1.54  212.68    1.00
  19                   CONDUIT  12315.89   237  06:04     15.68    7.30    1.00
  20                   CONDUIT 755036.98   237  06:35    >50.00  189.65    1.00
  21                   CONDUIT   3809.01   237  07:05      0.50    0.06    0.58
  22                   CONDUIT   3606.16   237  07:36      4.61    1.90    1.00
  23                   CONDUIT   1251.43   237  07:01      1.81    1.96    0.82
  24                   CONDUIT   3823.26   237  07:05      4.87    1.66    1.00
  
  
  ***************************
  Flow Classification Summary
  ***************************
  
  -------------------------------------------------------------------------------------
                      Adjusted    ---------- Fraction of Time in Flow Class ---------- 
                       /Actual         Up    Down  Sub   Sup   Up    Down  Norm  Inlet 
  Conduit               Length    Dry  Dry   Dry   Crit  Crit  Crit  Crit  Ltd   Ctrl  
  -------------------------------------------------------------------------------------
  0                       1.00   1.00  0.00  0.00  0.00  0.00  0.00  0.00  0.00  0.00
  1                       1.00   0.00  1.00  0.00  0.00  0.00  0.00  0.00  0.00  0.00
  2                       1.00   1.00  0.00  0.00  0.00  0.00  0.00  0.00  0.00  0.00
  3                       1.00   0.00  1.00  0.00  0.00  0.00  0.00  0.00  0.00  0.00
  4                       1.00   0.00  0.00  0.00  1.00  0.00  0.00  0.00  0.00  0.00
  5                       1.00   0.00  0.01  0.00  0.98  0.00  0.00  0.00  0.99  0.00
  6                       1.00   0.00  0.10  0.00  0.28  0.61  0.00  0.00  0.76  0.00
  7                       1.00   0.00  0.00  0.00  0.21  0.79  0.00  0.00  0.01  0.00
  8                       1.00   0.00  0.00  0.00  1.00  0.00  0.00  0.00  0.99  0.00
  9                       1.00   0.00  0.00  0.00  0.92  0.07  0.00  0.00  0.99  0.00
  10                      1.00   0.00  0.00  0.00  0.99  0.00  0.00  0.00  0.99  0.00
  11                      1.00   0.00  0.00  0.00  0.97  0.02  0.00  0.00  0.00  0.00
  12                      1.00   0.00  0.63  0.00  0.37  0.00  0.00  0.00  0.98  0.00
  13                      1.00   0.00  0.00  0.00  0.99  0.00  0.00  0.00  0.99  0.00
  14                      1.00   0.00  0.00  0.00  1.00  0.00  0.00  0.00  0.99  0.00
  15                      1.00   0.00  0.00  0.00  0.00  1.00  0.00  0.00  0.00  0.00
  16                      1.00   0.00  0.00  0.00  1.00  0.00  0.00  0.00  0.99  0.00
  17                      1.00   0.00  0.00  0.00  1.00  0.00  0.00  0.00  0.92  0.00
  18                      1.00   0.00  0.00  0.00  1.00  0.00  0.00  0.00  0.00  0.00
  19                      1.00   0.00  0.00  0.00  0.34  0.65  0.00  0.00  0.03  0.00
  20                      1.00   0.00  0.99  0.00  0.01  0.00  0.00  0.00  0.28  0.00
  21                      1.00   0.00  0.00  0.00  1.00  0.00  0.00  0.00  0.99  0.00
  22                      1.00   0.00  0.59  0.00  0.41  0.00  0.00  0.00  0.36  0.00
  23                      1.00   0.00  0.00  0.00  1.00  0.00  0.00  0.00  0.00  0.00
  24                      1.00   0.00  0.03  0.00  0.96  0.00  0.00  0.00  0.10  0.00
  
  
  *************************
  Conduit Surcharge Summary
  *************************
  
  ----------------------------------------------------------------------------
                                                           Hours        Hours 
                         --------- Hours Full --------   Above Full   Capacity
  Conduit                Both Ends  Upstream  Dnstream   Normal Flow   Limited
  ----------------------------------------------------------------------------
  8                           0.01      0.01      6.72      0.01         0.01
  10                          0.01      0.01   1295.55      0.01         0.01
  11                         18.11   3068.81     18.11   7335.92        18.11
  12                          0.01      0.01   1295.03      0.01         0.01
  13                          6.72      6.72     42.81      0.01         0.01
  14                         23.69     23.69     42.81      0.14         0.96
  15                          0.01    174.91      0.01     41.74         0.01
  16                          0.01      0.01   2668.09      0.01         0.01
  17                          0.01      0.01   4381.88     14.52         0.01
  18                       2757.05   4381.88   2757.05   7474.92      2757.05
  19                          0.01      0.01     36.58      0.08         0.01
  20                         22.22     22.22   2261.55      1.16         0.01
  21                          0.01      0.01   7542.37      0.01         0.01
  22                          2.33      2.33   5046.63    109.35         0.01
  23                          0.01   2757.05      0.01   2371.64         0.01
  24                         15.92     15.92   7439.82    143.03         0.01
  

  Analysis begun on:  Wed Apr 15 03:48:53 2020
  Analysis ended on:  Wed Apr 15 03:50:25 2020
  Total elapsed time: 00:01:32