
  EPA STORM WATER MANAGEMENT MODEL - VERSION 5.1 (Build 5.1.013)
  --------------------------------------------------------------

  Template input file for Gottesacker karst system.  
  Based on input files created by Zhao Chen. 
  Modified by Chloe Fandel: 
  
  WARNING 08: elevation drop exceeds length for Conduit 2
  WARNING 04: minimum elevation drop used for Conduit 3
  WARNING 04: minimum elevation drop used for Conduit 6
  WARNING 08: elevation drop exceeds length for Conduit 7
  WARNING 08: elevation drop exceeds length for Conduit 8
  WARNING 04: minimum elevation drop used for Conduit 15
  WARNING 04: minimum elevation drop used for Conduit 17
  WARNING 04: minimum elevation drop used for Conduit 18
  WARNING 04: minimum elevation drop used for Conduit 28
  
  *********************************************************
  NOTE: The summary statistics displayed in this report are
  based on results found at every computational time step,  
  not just on results from each reporting time step.
  *********************************************************
  
  ****************
  Analysis Options
  ****************
  Flow Units ............... LPS
  Process Models:
    Rainfall/Runoff ........ YES
    RDII ................... NO
    Snowmelt ............... NO
    Groundwater ............ NO
    Flow Routing ........... YES
    Ponding Allowed ........ NO
    Water Quality .......... NO
  Infiltration Method ...... HORTON
  Flow Routing Method ...... DYNWAVE
  Surcharge Method ......... EXTRAN
  Starting Date ............ 11/14/2013 00:00:00
  Ending Date .............. 10/11/2014 00:00:00
  Antecedent Dry Days ...... 0.0
  Report Time Step ......... 01:00:00
  Wet Time Step ............ 00:30:00
  Dry Time Step ............ 01:00:00
  Routing Time Step ........ 30.00 sec
  Variable Time Step ....... YES
  Maximum Trials ........... 8
  Number of Threads ........ 4
  Head Tolerance ........... 0.001524 m
  
  
  **************************        Volume         Depth
  Runoff Quantity Continuity     hectare-m            mm
  **************************     ---------       -------
  Total Precipitation ......      1876.070       691.193
  Evaporation Loss .........         0.000         0.000
  Infiltration Loss ........         0.000         0.000
  Surface Runoff ...........      1873.345       690.189
  Final Storage ............         3.029         1.116
  Continuity Error (%) .....        -0.016
  
  
  **************************        Volume        Volume
  Flow Routing Continuity        hectare-m      10^6 ltr
  **************************     ---------     ---------
  Dry Weather Inflow .......         0.000         0.000
  Wet Weather Inflow .......      1873.360     18733.796
  Groundwater Inflow .......         0.000         0.000
  RDII Inflow ..............         0.000         0.000
  External Inflow ..........         1.699        16.987
  External Outflow .........      2628.441     26284.679
  Flooding Loss ............        78.668       786.693
  Evaporation Loss .........         0.000         0.000
  Exfiltration Loss ........         0.000         0.000
  Initial Stored Volume ....         0.000         0.000
  Final Stored Volume ......         0.306         3.059
  Continuity Error (%) .....       -44.391
  
  
  *************************
  Highest Continuity Errors
  *************************
  Node 14 (-896.51%)
  Node 22 (25.10%)
  Node 16 (-18.94%)
  Node 11 (-12.90%)
  Node 13 (-7.47%)
  
  
  ***************************
  Time-Step Critical Elements
  ***************************
  Link 31 (67.01%)
  Link 18 (29.40%)
  Link 29 (1.23%)
  
  
  ********************************
  Highest Flow Instability Indexes
  ********************************
  Link 18 (117)
  Link 19 (103)
  Link 13 (102)
  Link 15 (101)
  Link 14 (88)
  
  
  *************************
  Routing Time Step Summary
  *************************
  Minimum Time Step           :     0.50 sec
  Average Time Step           :    12.92 sec
  Maximum Time Step           :    30.00 sec
  Percent in Steady State     :     0.30
  Average Iterations per Step :     7.38
  Percent Not Converging      :    89.01
  
  
  ***************************
  Subcatchment Runoff Summary
  ***************************
  
  ------------------------------------------------------------------------------------------------------------------------------
                            Total      Total      Total      Total     Imperv       Perv      Total       Total     Peak  Runoff
                           Precip      Runon       Evap      Infil     Runoff     Runoff     Runoff      Runoff   Runoff   Coeff
  Subcatchment                 mm         mm         mm         mm         mm         mm         mm    10^6 ltr      LPS
  ------------------------------------------------------------------------------------------------------------------------------
  S1                         0.00       0.00       0.00       0.00       0.00       0.00       0.00        0.00     0.00   0.000
  S2                         0.00       0.00       0.00       0.00       0.00       0.00       0.00        0.00     0.00   0.000
  S4                         0.00       0.00       0.00       0.00       0.00       0.00       0.00        0.00     0.00   0.000
  S7                         0.00       0.00       0.00       0.00       0.00       0.00       0.00        0.00     0.00   0.000
  S8                      1031.42       0.00       0.00       0.00    1032.06       0.00    1032.06       64.50    55.73   1.001
  S9                      1025.22       0.00       0.00       0.00    1025.31       0.00    1025.31      371.68   262.35   1.000
  S10                     1385.10       0.00       0.00       0.00    1385.52       0.00    1385.52      498.79   466.98   1.000
  S11                     1067.22       0.00       0.00       0.00    1067.43       0.00    1067.43      304.22   223.10   1.000
  S12                      986.20       0.00       0.00       0.00     986.34       0.00     986.34      367.42   312.39   1.000
  S13                     1095.88       0.00       0.00       0.00    1096.03       0.00    1096.03      482.26   414.04   1.000
  S14                      977.89       0.00       0.00       0.00     978.35       0.00     978.35      134.52   153.20   1.000
  S15                     1323.24       0.00       0.00       0.00    1324.30       0.00    1324.30      115.88   125.53   1.001
  S16                     1001.87       0.00       0.00       0.00    1002.10       0.00    1002.10      283.10   278.35   1.000
  S17                     1351.68       0.00       0.00       0.00    1352.75       0.00    1352.75      121.75   137.41   1.001
  S18                      973.25       0.00       0.00       0.00     974.33       0.00     974.33       29.23    35.76   1.001
  S19                     1574.01       0.00       0.00       0.00    1574.39       0.00    1574.39      625.82   478.24   1.000
  S20                     1292.86       0.00       0.00       0.00    1293.18       0.00    1293.18      484.95   498.34   1.000
  S21                     1129.79       0.00       0.00       0.00    1130.01       0.00    1130.01      449.18   373.16   1.000
  S22                     1148.78       0.00       0.00       0.00    1148.42       0.00    1148.42     1714.03  1002.50   1.000
  S23                      770.39       0.00       0.00       0.00     770.36       0.00     770.36      381.33   362.19   1.000
  S24                        0.00       0.00       0.00       0.00       0.00       0.00       0.00        0.00     0.00   0.000
  S25                      809.29       0.00       0.00       0.00     807.48       0.00     807.48    12090.03  4540.50   0.998
  S26                     1369.60       0.00       0.00       0.00    1371.06       0.00    1371.06       82.26    92.06   1.001
  S27                       22.11       0.00       0.00       0.00      21.88       0.00      21.88       81.55    15.50   0.989
  S28                     1359.91       0.00       0.00       0.00    1361.72       0.00    1361.72       51.06    60.01   1.001
  S29                        0.00       0.00       0.00       0.00       0.00       0.00       0.00        0.00     0.00   0.000
  S30                        0.00       0.00       0.00       0.00       0.00       0.00       0.00        0.00     0.00   0.000
  
  
  ******************
  Node Depth Summary
  ******************
  
  ---------------------------------------------------------------------------------
                                 Average  Maximum  Maximum  Time of Max    Reported
                                   Depth    Depth      HGL   Occurrence   Max Depth
  Node                 Type       Meters   Meters   Meters  days hr:min      Meters
  ---------------------------------------------------------------------------------
  0                    JUNCTION     0.00     0.00  1872.50     0  00:00        0.00
  1                    JUNCTION     0.00     0.00  1707.50     0  00:00        0.00
  2                    JUNCTION     0.00     0.00  1735.00     0  00:00        0.00
  3                    JUNCTION     0.00     0.00  1707.50     0  00:00        0.00
  4                    JUNCTION     0.00     0.00  1735.00     0  00:00        0.00
  5                    JUNCTION     0.00     0.00  1762.50     0  00:00        0.00
  6                    JUNCTION     1.11    83.32  1515.82   227  18:57       66.51
  7                    JUNCTION     0.01     0.07  1955.07   259  03:04        0.07
  8                    JUNCTION     0.02     0.12  1927.62   259  03:01        0.12
  9                    JUNCTION     0.20    34.51  1797.01   262  21:00       34.50
  10                   JUNCTION     0.09     2.65  1792.65   259  07:01        2.65
  11                   JUNCTION    37.84   167.01  1792.01   259  04:12      166.93
  12                   JUNCTION     0.68    77.34  1784.84   259  03:29       77.03
  13                   JUNCTION     9.67   131.98  1784.48   259  03:33      131.71
  14                   JUNCTION     1.21   104.46  1784.46   259  03:33      104.18
  15                   JUNCTION     4.30   128.51  1781.01   259  03:40      128.32
  16                   JUNCTION     1.13   100.72  1780.72   259  03:40      100.54
  17                   JUNCTION     2.62   128.22  1780.72   259  03:41      128.04
  18                   JUNCTION     5.49   149.17  1499.17   291  06:08      149.01
  19                   JUNCTION     0.24    21.03  1701.03   262  21:00       21.03
  20                   JUNCTION    21.08   186.89  1729.39   236  12:22      168.95
  21                   JUNCTION    23.04   204.00  1499.00   163  19:47      204.00
  22                   JUNCTION    76.29   201.00  1688.50   163  20:52      201.00
  23                   JUNCTION    12.98   201.00  1771.00   250  08:27      118.51
  24                   JUNCTION    10.74    90.37  1192.87   237  07:00       90.36
  25                   JUNCTION     8.09    74.98  1177.48   237  07:00       74.98
  26                   JUNCTION    16.94    19.84  1039.84   237  07:00       19.84
  27                   OUTFALL      0.19     1.00  1121.00   237  05:08        1.00
  28                   OUTFALL      0.28     0.66  1080.66   237  07:00        0.66
  29                   OUTFALL      0.30     0.48  1035.48   237  07:00        0.48
  
  
  *******************
  Node Inflow Summary
  *******************
  
  -------------------------------------------------------------------------------------------------
                                  Maximum  Maximum                  Lateral       Total        Flow
                                  Lateral    Total  Time of Max      Inflow      Inflow     Balance
                                   Inflow   Inflow   Occurrence      Volume      Volume       Error
  Node                 Type           LPS      LPS  days hr:min    10^6 ltr    10^6 ltr     Percent
  -------------------------------------------------------------------------------------------------
  0                    JUNCTION      0.00     0.00     0  00:00           0           0       0.000 ltr
  1                    JUNCTION      0.00     0.00     0  00:00           0           0       0.000 ltr
  2                    JUNCTION      0.00     0.00     0  00:00           0           0       0.000 ltr
  3                    JUNCTION      0.00     0.00     0  00:00           0           0       0.000 ltr
  4                    JUNCTION      0.00     0.00     0  00:00           0           0       0.000 ltr
  5                    JUNCTION      0.00     0.00     0  00:00           0           0       0.000 ltr
  6                    JUNCTION      0.00   687.12   227  18:55           0        13.1       0.000
  7                    JUNCTION     56.81    56.81   259  03:00        66.6        66.6      -0.174
  8                    JUNCTION    263.33   263.33   259  03:00         374         374       0.000
  9                    JUNCTION    467.05   467.05   262  21:00         499         499      -0.003
  10                   JUNCTION    224.06   624.40   259  03:13         306         747       0.021
  11                   JUNCTION    312.84  1035.79   262  20:11         369    1.62e+03     -11.426
  12                   JUNCTION    414.39   414.39   262  21:00         484         484       0.000
  13                   JUNCTION    153.30  7920.04   239  03:29         135    8.97e+03      -6.949
  14                   JUNCTION    125.63  2042.27   262  18:33         116         730     -89.965
  15                   JUNCTION    278.86  2020.00   221  17:52         285       1e+04      -2.233
  16                   JUNCTION    137.49  1522.50   262  20:12         122         566     -15.921
  17                   JUNCTION     37.29  2061.85   262  19:08          31    1.05e+04      -0.598
  18                   JUNCTION    478.24  1598.19   262  21:00         626    1.13e+03      -0.275
  19                   JUNCTION    498.34   523.62   262  19:28         485         485       0.334
  20                   JUNCTION    373.44  9796.62   250  08:27         450    1.19e+04       1.719
  21                   JUNCTION   1002.84  2612.05   227  18:57    1.72e+03    1.45e+04      -0.384
  22                   JUNCTION    362.19121279.21   203  01:07         381    2.12e+03      33.516
  23                   JUNCTION      0.00 54008.36   262  19:24           0        15.5       0.000
  24                   JUNCTION   4540.53  6078.10   237  07:00    1.21e+04    2.61e+04       0.003
  25                   JUNCTION     92.06  1311.10   237  07:00        82.3    7.68e+03      -0.004
  26                   JUNCTION     15.50  1055.11   237  07:00        81.5    1.17e+04       0.084
  27                   OUTFALL      60.01  3799.19   237  07:00        51.1    6.87e+03       0.000
  28                   OUTFALL       0.00  1311.01   237  07:00           0    7.68e+03       0.000
  29                   OUTFALL       0.00  1055.11   237  07:00           0    1.17e+04       0.000
  
  
  **********************
  Node Surcharge Summary
  **********************
  
  Surcharging occurs when water rises above the top of the highest conduit.
  ---------------------------------------------------------------------
                                               Max. Height   Min. Depth
                                   Hours       Above Crown    Below Rim
  Node                 Type      Surcharged         Meters       Meters
  ---------------------------------------------------------------------
  6                    JUNCTION      134.59         82.320        0.000
  9                    JUNCTION       41.82         33.513        0.000
  11                   JUNCTION     7883.57        166.010        0.000
  12                   JUNCTION      103.95         76.339        0.000
  13                   JUNCTION     3806.92        130.980        0.000
  14                   JUNCTION      169.21        103.455        0.000
  15                   JUNCTION     2793.93        127.505        0.000
  16                   JUNCTION      149.27         96.721        0.000
  17                   JUNCTION      408.03        124.220        0.000
  18                   JUNCTION      399.82        145.168        0.000
  19                   JUNCTION      111.95         20.034        0.000
  20                   JUNCTION     1323.91        185.895        0.000
  21                   JUNCTION     1601.97        200.000        0.000
  22                   JUNCTION     7879.18        200.000        0.000
  23                   JUNCTION     1226.15        200.000        0.000
  24                   JUNCTION     2776.49         89.366        0.000
  25                   JUNCTION     2466.59         73.979        0.000
  26                   JUNCTION     7879.08         18.836        0.000
  
  
  *********************
  Node Flooding Summary
  *********************
  
  Flooding refers to all water that overflows a node, whether it ponds or not.
  --------------------------------------------------------------------------
                                                             Total   Maximum
                                 Maximum   Time of Max       Flood    Ponded
                        Hours       Rate    Occurrence      Volume     Depth
  Node                 Flooded       LPS   days hr:min    10^6 ltr    Meters
  --------------------------------------------------------------------------
  21                     72.52    996.11    259  03:00      87.549   200.000
  22                    116.17  66473.52    250  10:19     698.397   200.000
  23                      0.04  26097.94    250  10:19       1.257   200.000
  
  
  ***********************
  Outfall Loading Summary
  ***********************
  
  -----------------------------------------------------------
                         Flow       Avg       Max       Total
                         Freq      Flow      Flow      Volume
  Outfall Node           Pcnt       LPS       LPS    10^6 ltr
  -----------------------------------------------------------
  27                    83.48    434.64   3799.19    6869.865
  28                    99.66    382.85   1311.01    7683.974
  29                    99.63    520.53   1055.11   11730.726
  -----------------------------------------------------------
  System                94.26   1338.03   1055.11   26284.565
  
  
  ********************
  Link Flow Summary
  ********************
  
  -----------------------------------------------------------------------------
                                 Maximum  Time of Max   Maximum    Max/    Max/
                                  |Flow|   Occurrence   |Veloc|    Full    Full
  Link                 Type          LPS  days hr:min     m/sec    Flow   Depth
  -----------------------------------------------------------------------------
  0                    CONDUIT      0.00     0  00:00      0.00    0.00    0.00
  1                    CONDUIT      0.00     0  00:00      0.00    0.00    0.50
  2                    CONDUIT      0.00     0  00:00      0.00    0.00    0.00
  3                    CONDUIT      0.00     0  00:00      0.00    0.00    0.00
  4                    CONDUIT    687.12   227  18:55      0.93    0.95    1.00
  5                    CONDUIT   1204.70   262  21:00      0.27    0.02    1.00
  6                    CONDUIT      0.00     0  00:00      0.00    0.00    0.00
  7                    CONDUIT      0.00     0  00:00      0.00    0.00    0.00
  8                    CONDUIT      0.00     0  00:00      0.00    0.00    0.00
  9                    CONDUIT     55.91   259  03:04      0.24    0.00    0.34
  10                   CONDUIT    262.73   259  03:01      0.82    0.00    0.34
  11                   CONDUIT    702.23   259  11:08      1.01    0.41    1.00
  12                   CONDUIT    466.83   262  21:00      0.74    0.21    1.00
  13                   CONDUIT   1033.91   262  20:11      1.32    0.99    1.00
  14                   CONDUIT   7729.98   239  03:29    >50.00    0.00    1.00
  15                   CONDUIT   1240.17   243  14:53      1.58  256.18    1.00
  16                   CONDUIT    410.72   262  21:00      3.77    0.14    1.00
  17                   CONDUIT    807.85   262  20:11      1.03  166.88    1.00
  18                   CONDUIT   2000.25   242  23:01      2.55  203.49    1.00
  19                   CONDUIT   1109.03   290  22:54      2.79    0.00    1.00
  20                   CONDUIT   1631.79   262  19:08      0.17    0.01    1.00
  21                   CONDUIT   9657.10   250  08:27     12.30    5.59    1.00
  22                   CONDUIT   1494.47   235  21:23      2.08    1.18    1.00
  23                   CONDUIT   5029.41   286  07:16      6.40    6.50    1.00
  24                   CONDUIT   1672.22   163  19:47      2.13    1.36    1.00
  25                   CONDUIT   1956.80   262  19:20      2.74    0.98    1.00
  26                   CONDUIT 118863.21   250  10:20    >50.00    0.01    1.00
  27                   CONDUIT   1040.09   237  07:00      1.32    1.35    1.00
  28                   CONDUIT   1266.50   237  07:00      1.61  223.16    1.00
  29                   CONDUIT   3771.43   237  07:00      4.80    1.99    1.00
  30                   CONDUIT   1311.01   237  07:00      1.88    2.05    0.83
  31                   CONDUIT   1055.11   237  07:00      1.70    0.46    0.74
  
  
  ***************************
  Flow Classification Summary
  ***************************
  
  -------------------------------------------------------------------------------------
                      Adjusted    ---------- Fraction of Time in Flow Class ---------- 
                       /Actual         Up    Down  Sub   Sup   Up    Down  Norm  Inlet 
  Conduit               Length    Dry  Dry   Dry   Crit  Crit  Crit  Crit  Ltd   Ctrl  
  -------------------------------------------------------------------------------------
  0                       1.00   1.00  0.00  0.00  0.00  0.00  0.00  0.00  0.00  0.00
  1                       1.00   0.00  1.00  0.00  0.00  0.00  0.00  0.00  0.00  0.00
  2                       1.00   1.00  0.00  0.00  0.00  0.00  0.00  0.00  0.00  0.00
  3                       1.00   1.00  0.00  0.00  0.00  0.00  0.00  0.00  0.00  0.00
  4                       1.00   0.00  0.83  0.00  0.17  0.00  0.00  0.00  0.48  0.00
  5                       1.00   0.00  0.00  0.00  1.00  0.00  0.00  0.00  0.80  0.00
  6                       1.00   1.00  0.00  0.00  0.00  0.00  0.00  0.00  0.00  0.00
  7                       1.00   1.00  0.00  0.00  0.00  0.00  0.00  0.00  0.00  0.00
  8                       1.00   1.00  0.00  0.00  0.00  0.00  0.00  0.00  0.00  0.00
  9                       1.00   0.00  0.01  0.00  0.98  0.00  0.00  0.00  0.99  0.00
  10                      1.00   0.00  0.00  0.00  0.99  0.00  0.00  0.00  0.99  0.00
  11                      1.00   0.00  0.00  0.00  1.00  0.00  0.00  0.00  0.99  0.00
  12                      1.00   0.00  0.00  0.00  1.00  0.00  0.00  0.00  0.98  0.00
  13                      1.00   0.00  0.00  0.00  1.00  0.00  0.00  0.00  0.00  0.00
  14                      1.00   0.00  0.68  0.00  0.32  0.00  0.00  0.00  0.90  0.00
  15                      1.00   0.00  0.00  0.00  1.00  0.00  0.00  0.00  0.00  0.00
  16                      1.00   0.03  0.01  0.00  0.04  0.91  0.00  0.00  0.01  0.00
  17                      1.00   0.43  0.00  0.00  0.56  0.01  0.00  0.00  0.18  0.00
  18                      1.00   0.00  0.00  0.00  1.00  0.00  0.00  0.00  0.00  0.00
  19                      1.00   0.00  0.47  0.00  0.53  0.00  0.00  0.00  0.97  0.00
  20                      1.00   0.00  0.50  0.00  0.50  0.00  0.00  0.00  0.97  0.00
  21                      1.00   0.00  0.00  0.00  0.98  0.02  0.00  0.00  0.84  0.00
  22                      1.00   0.00  0.00  0.00  1.00  0.00  0.00  0.00  0.78  0.00
  23                      1.00   0.00  0.00  0.00  1.00  0.00  0.00  0.00  0.00  0.00
  24                      1.00   0.00  0.00  0.00  1.00  0.00  0.00  0.00  0.71  0.00
  25                      1.00   0.00  0.00  0.00  1.00  0.00  0.00  0.00  0.97  0.00
  26                      1.00   0.00  0.71  0.00  0.28  0.00  0.00  0.00  0.17  0.00
  27                      1.00   0.00  0.00  0.00  1.00  0.00  0.00  0.00  0.63  0.00
  28                      1.00   0.00  0.00  0.00  1.00  0.00  0.00  0.00  0.00  0.00
  29                      1.00   0.00  0.58  0.00  0.42  0.00  0.00  0.00  0.37  0.00
  30                      1.00   0.00  0.00  0.00  1.00  0.00  0.00  0.00  0.00  0.00
  31                      1.00   0.00  0.00  0.00  1.00  0.00  0.00  0.00  0.03  0.00
  
  
  *************************
  Conduit Surcharge Summary
  *************************
  
  ----------------------------------------------------------------------------
                                                           Hours        Hours 
                         --------- Hours Full --------   Above Full   Capacity
  Conduit                Both Ends  Upstream  Dnstream   Normal Flow   Limited
  ----------------------------------------------------------------------------
  4                         134.59    134.59    589.09      0.01         0.01
  5                         399.81    399.81   1601.95      0.01         0.01
  11                         14.43     14.43   7883.57      0.01         0.01
  12                         41.81     41.81   7871.57      0.01         0.01
  13                       3723.58   3723.58   7883.57      0.01         0.01
  14                        169.20    169.20   3730.65      0.01         0.01
  15                       2793.70   3718.90   2793.70   7870.08      2793.67
  16                        103.93    103.93    169.21      0.01         0.01
  17                        158.95    169.21    158.95    179.17       158.95
  18                        463.50   2793.77    463.50   7769.21       463.50
  19                        158.95    158.95   2793.99      0.01         0.01
  20                        149.25    149.25    407.85      0.01         0.01
  21                        463.45    463.50   1323.84      4.88         0.03
  22                       1317.52   1323.80   2197.61    903.31       839.39
  23                       1323.80   1323.83   7879.17     15.76         0.72
  24                       2197.61   2197.61   2776.44   1629.14      1586.33
  25                        111.92    111.92   7879.17      0.01         0.01
  26                       1225.96   1225.96   5096.93      0.01         0.01
  27                       2776.44   2776.44   7879.08   1670.24      2005.25
  28                       2466.50   2776.44   2466.50   6041.52      2466.50
  29                          7.30      7.30   5161.41    172.05         0.01
  30                          0.01   2466.44      0.01   2375.46         0.01
  31                          0.01      0.01   7878.93      0.01         0.01
  

  Analysis begun on:  Wed Apr 15 04:08:33 2020
  Analysis ended on:  Wed Apr 15 04:11:48 2020
  Total elapsed time: 00:03:15