
  EPA STORM WATER MANAGEMENT MODEL - VERSION 5.1 (Build 5.1.013)
  --------------------------------------------------------------

  Template input file for Gottesacker karst system.  
  Based on input files created by Zhao Chen. 
  Modified by Chloe Fandel: 
  
  WARNING 08: elevation drop exceeds length for Conduit 2
  WARNING 04: minimum elevation drop used for Conduit 4
  WARNING 04: minimum elevation drop used for Conduit 11
  WARNING 04: minimum elevation drop used for Conduit 18
  WARNING 08: elevation drop exceeds length for Conduit 20
  
  *********************************************************
  NOTE: The summary statistics displayed in this report are
  based on results found at every computational time step,  
  not just on results from each reporting time step.
  *********************************************************
  
  ****************
  Analysis Options
  ****************
  Flow Units ............... LPS
  Process Models:
    Rainfall/Runoff ........ YES
    RDII ................... NO
    Snowmelt ............... NO
    Groundwater ............ NO
    Flow Routing ........... YES
    Ponding Allowed ........ NO
    Water Quality .......... NO
  Infiltration Method ...... HORTON
  Flow Routing Method ...... DYNWAVE
  Surcharge Method ......... EXTRAN
  Starting Date ............ 11/14/2013 00:00:00
  Ending Date .............. 10/11/2014 00:00:00
  Antecedent Dry Days ...... 0.0
  Report Time Step ......... 01:00:00
  Wet Time Step ............ 00:30:00
  Dry Time Step ............ 01:00:00
  Routing Time Step ........ 30.00 sec
  Variable Time Step ....... YES
  Maximum Trials ........... 8
  Number of Threads ........ 4
  Head Tolerance ........... 0.001524 m
  
  
  **************************        Volume         Depth
  Runoff Quantity Continuity     hectare-m            mm
  **************************     ---------       -------
  Total Precipitation ......      1918.244       705.626
  Evaporation Loss .........         0.000         0.000
  Infiltration Loss ........         0.000         0.000
  Surface Runoff ...........      1915.103       704.470
  Final Storage ............         3.433         1.263
  Continuity Error (%) .....        -0.015
  
  
  **************************        Volume        Volume
  Flow Routing Continuity        hectare-m      10^6 ltr
  **************************     ---------     ---------
  Dry Weather Inflow .......         0.000         0.000
  Wet Weather Inflow .......      1915.111     19151.313
  Groundwater Inflow .......         0.000         0.000
  RDII Inflow ..............         0.000         0.000
  External Inflow ..........         1.148        11.481
  External Outflow .........      2526.448     25264.738
  Flooding Loss ............         0.000         0.000
  Evaporation Loss .........         0.000         0.000
  Exfiltration Loss ........         0.000         0.000
  Initial Stored Volume ....         0.000         0.000
  Final Stored Volume ......         1.318        13.184
  Continuity Error (%) .....       -31.911
  
  
  *************************
  Highest Continuity Errors
  *************************
  Node 9 (11.98%)
  
  
  ***************************
  Time-Step Critical Elements
  ***************************
  Link 24 (83.53%)
  
  
  ********************************
  Highest Flow Instability Indexes
  ********************************
  Link 11 (132)
  Link 12 (123)
  Link 6 (27)
  Link 24 (9)
  Link 7 (5)
  
  
  *************************
  Routing Time Step Summary
  *************************
  Minimum Time Step           :     3.28 sec
  Average Time Step           :    18.33 sec
  Maximum Time Step           :    30.00 sec
  Percent in Steady State     :     0.30
  Average Iterations per Step :     3.51
  Percent Not Converging      :    18.05
  
  
  ***************************
  Subcatchment Runoff Summary
  ***************************
  
  ------------------------------------------------------------------------------------------------------------------------------
                            Total      Total      Total      Total     Imperv       Perv      Total       Total     Peak  Runoff
                           Precip      Runon       Evap      Infil     Runoff     Runoff     Runoff      Runoff   Runoff   Coeff
  Subcatchment                 mm         mm         mm         mm         mm         mm         mm    10^6 ltr      LPS
  ------------------------------------------------------------------------------------------------------------------------------
  S1                         0.00       0.00       0.00       0.00       0.00       0.00       0.00        0.00     0.00   0.000
  S2                         0.00       0.00       0.00       0.00       0.00       0.00       0.00        0.00     0.00   0.000
  S3                         0.00       0.00       0.00       0.00       0.00       0.00       0.00        0.00     0.00   0.000
  S4                         0.00       0.00       0.00       0.00       0.00       0.00       0.00        0.00     0.00   0.000
  S5                      1037.52       0.00       0.00       0.00    1038.15       0.00    1038.15       72.67    62.44   1.001
  S6                      1025.22       0.00       0.00       0.00    1025.31       0.00    1025.31      371.68   262.35   1.000
  S7                      1067.22       0.00       0.00       0.00    1067.44       0.00    1067.44      296.22   218.08   1.000
  S8                      1385.10       0.00       0.00       0.00    1385.52       0.00    1385.52      498.79   466.98   1.000
  S9                      1036.22       0.00       0.00       0.00    1036.14       0.00    1036.14      841.87   614.86   1.000
  S10                     1303.86       0.00       0.00       0.00    1304.83       0.00    1304.83      123.96   153.90   1.001
  S11                     1323.24       0.00       0.00       0.00    1324.30       0.00    1324.30      115.88   125.53   1.001
  S12                     1003.45       0.00       0.00       0.00    1004.05       0.00    1004.05       80.32    68.42   1.001
  S13                     1565.06       0.00       0.00       0.00    1565.91       0.00    1565.91      246.63   210.79   1.001
  S14                     1589.63       0.00       0.00       0.00    1590.24       0.00    1590.24      381.66   311.46   1.000
  S15                     1292.86       0.00       0.00       0.00    1293.18       0.00    1293.18      484.95   498.34   1.000
  S16                      770.39       0.00       0.00       0.00     770.36       0.00     770.36      381.33   362.19   1.000
  S17                        0.00       0.00       0.00       0.00       0.00       0.00       0.00        0.00     0.00   0.000
  S18                     1447.74       0.00       0.00       0.00    1447.95       0.00    1447.95      908.60   777.54   1.000
  S19                     1445.01       0.00       0.00       0.00    1445.95       0.00    1445.95      195.20   205.61   1.001
  S20                      848.36       0.00       0.00       0.00     846.43       0.00     846.43    13936.51  5208.68   0.998
  S21                     1369.60       0.00       0.00       0.00    1371.06       0.00    1371.06       82.26    92.06   1.001
  S22                       22.11       0.00       0.00       0.00      21.88       0.00      21.88       81.55    15.50   0.989
  S23                     1359.91       0.00       0.00       0.00    1361.72       0.00    1361.72       51.06    60.01   1.001
  S24                        0.00       0.00       0.00       0.00       0.00       0.00       0.00        0.00     0.00   0.000
  S25                        0.00       0.00       0.00       0.00       0.00       0.00       0.00        0.00     0.00   0.000
  
  
  ******************
  Node Depth Summary
  ******************
  
  ---------------------------------------------------------------------------------
                                 Average  Maximum  Maximum  Time of Max    Reported
                                   Depth    Depth      HGL   Occurrence   Max Depth
  Node                 Type       Meters   Meters   Meters  days hr:min      Meters
  ---------------------------------------------------------------------------------
  0                    JUNCTION     0.00     0.00  1872.50     0  00:00        0.00
  1                    JUNCTION     0.00     0.00  1735.00     0  00:00        0.00
  2                    JUNCTION     0.00     0.00  1762.50     0  00:00        0.00
  3                    JUNCTION     0.00     0.00  1432.50     0  00:00        0.00
  4                    JUNCTION     0.01     0.07  1955.07   259  03:02        0.07
  5                    JUNCTION     0.01     0.08  1927.58   259  03:00        0.08
  6                    JUNCTION     0.05     0.23  1817.73   259  03:06        0.23
  7                    JUNCTION     0.03     0.19  1762.69   262  21:01        0.19
  8                    JUNCTION     0.18     0.63  1625.63   262  19:07        0.63
  9                    JUNCTION     0.58     1.72  1626.72   262  19:01        1.72
  10                   JUNCTION     0.00     0.00  1707.50   221  15:48        0.00
  11                   JUNCTION     0.03     0.17  1680.17   259  03:13        0.17
  12                   JUNCTION     0.13     0.45  1377.95   259  04:09        0.44
  13                   JUNCTION     0.06     0.27  1377.77   259  03:27        0.27
  14                   JUNCTION     0.03     0.19  1680.19   262  21:00        0.19
  15                   JUNCTION     0.06     0.32  1542.82   262  21:05        0.32
  16                   JUNCTION     0.00     0.00  1570.00     0  00:00        0.00
  17                   JUNCTION     0.14     0.52  1433.02   262  21:06        0.52
  18                   JUNCTION     0.16     0.60  1130.60   262  21:09        0.60
  19                   JUNCTION     0.80     2.22  1104.72   237  07:07        2.22
  20                   JUNCTION     0.37     1.17  1103.67   237  07:09        1.16
  21                   JUNCTION    15.50    42.07  1062.07   262  21:09       41.64
  22                   OUTFALL      0.00     0.00  1120.00     0  00:00        0.00
  23                   OUTFALL      0.30     1.08  1081.08   237  07:09        1.07
  24                   OUTFALL      0.20     0.94  1035.94   262  21:09        0.94
  
  
  *******************
  Node Inflow Summary
  *******************
  
  -------------------------------------------------------------------------------------------------
                                  Maximum  Maximum                  Lateral       Total        Flow
                                  Lateral    Total  Time of Max      Inflow      Inflow     Balance
                                   Inflow   Inflow   Occurrence      Volume      Volume       Error
  Node                 Type           LPS      LPS  days hr:min    10^6 ltr    10^6 ltr     Percent
  -------------------------------------------------------------------------------------------------
  0                    JUNCTION      0.00     0.00     0  00:00           0           0       0.000 ltr
  1                    JUNCTION      0.00     0.00     0  00:00           0           0       0.000 ltr
  2                    JUNCTION      0.00     0.00     0  00:00           0           0       0.000 ltr
  3                    JUNCTION      0.00     0.00     0  00:00           0           0       0.000 ltr
  4                    JUNCTION     63.47    63.47   259  03:00        74.7        74.7      -0.061
  5                    JUNCTION    263.34   263.34   259  03:00         374         374       0.000
  6                    JUNCTION    219.04   544.97   259  03:00         298         747      -0.021
  7                    JUNCTION    467.05   467.05   262  21:00         499         499       0.036
  8                    JUNCTION    615.26  3908.25   262  19:02         843    8.02e+03      -0.021
  9                    JUNCTION    154.39  7462.27   262  18:56         125    7.75e+03      13.604
  10                   JUNCTION    125.63   125.63   262  21:00         116         116       0.000
  11                   JUNCTION     69.13   608.02   259  03:05        82.4         830      -0.015
  12                   JUNCTION    210.79   210.79   259  03:00         247         247       0.021
  13                   JUNCTION    311.46   805.00   259  03:09         382     1.1e+03      -0.049
  14                   JUNCTION    498.34   498.34   262  21:00         485         485      -0.014
  15                   JUNCTION    362.19   858.53   262  21:00         381         866       0.032
  16                   JUNCTION      0.00     0.00     0  00:00           0           0       0.000 ltr
  17                   JUNCTION    777.54  5435.51   262  21:02         909    9.79e+03       0.001
  18                   JUNCTION    205.61  5619.98   262  21:05         195    9.99e+03      -0.004
  19                   JUNCTION   5208.72  7495.76   237  07:00    1.39e+04    1.95e+04       0.012
  20                   JUNCTION     92.06  7502.27   237  07:07        82.3    1.96e+04       0.000
  21                   JUNCTION     15.50  3124.60   262  21:09        81.5    5.63e+03      -0.379
  22                   OUTFALL      60.01    60.01   259  03:00        51.1        51.1       0.000
  23                   OUTFALL       0.00  7501.23   237  07:09           0    1.96e+04       0.000
  24                   OUTFALL       0.00  3124.60   262  21:09           0    5.65e+03       0.000
  
  
  **********************
  Node Surcharge Summary
  **********************
  
  Surcharging occurs when water rises above the top of the highest conduit.
  ---------------------------------------------------------------------
                                               Max. Height   Min. Depth
                                   Hours       Above Crown    Below Rim
  Node                 Type      Surcharged         Meters       Meters
  ---------------------------------------------------------------------
  21                   JUNCTION     7230.74         38.075        0.000
  
  
  *********************
  Node Flooding Summary
  *********************
  
  No nodes were flooded.
  
  
  ***********************
  Outfall Loading Summary
  ***********************
  
  -----------------------------------------------------------
                         Flow       Avg       Max       Total
                         Freq      Flow      Flow      Volume
  Outfall Node           Pcnt       LPS       LPS    10^6 ltr
  -----------------------------------------------------------
  22                    82.99      3.61     60.01      51.061
  23                    99.54    977.34   7501.23   19566.824
  24                    93.68    318.09   3124.60    5647.000
  -----------------------------------------------------------
  System                92.07   1299.03   3124.60   25264.885
  
  
  ********************
  Link Flow Summary
  ********************
  
  -----------------------------------------------------------------------------
                                 Maximum  Time of Max   Maximum    Max/    Max/
                                  |Flow|   Occurrence   |Veloc|    Full    Full
  Link                 Type          LPS  days hr:min     m/sec    Flow   Depth
  -----------------------------------------------------------------------------
  0                    CONDUIT      0.00     0  00:00      0.00    0.00    0.00
  1                    CONDUIT      0.00     0  00:00      0.00    0.00    0.06
  2                    CONDUIT      0.00     0  00:00      0.00    0.00    0.00
  3                    CONDUIT      0.00     0  00:00      0.00    0.00    0.06
  4                    CONDUIT    167.04   259  04:08      0.30    0.41    0.09
  5                    CONDUIT     62.91   259  03:02      0.43    0.00    0.04
  6                    CONDUIT    263.28   259  03:00      1.64    0.00    0.04
  7                    CONDUIT    540.39   259  03:07     16.71    0.01    0.05
  8                    CONDUIT    257.55   259  03:13      0.85    0.00    0.10
  9                    CONDUIT    346.69   259  03:13      1.28    0.00    0.05
  10                   CONDUIT    464.62   262  21:01      0.22    0.00    0.24
  11                   CONDUIT   3342.43   262  19:01      1.09   10.86    0.29
  12                   CONDUIT   6991.49   262  18:55      3.75    0.00    0.21
  13                   CONDUIT   3865.04   262  19:08      3.57    0.05    0.14
  14                   CONDUIT    847.82   262  21:05      1.33    0.01    0.10
  15                   CONDUIT   5421.41   262  21:06      5.05    0.04    0.14
  16                   CONDUIT    793.90   259  03:27      0.24    0.01    0.31
  17                   CONDUIT   2495.68   262  21:09      0.78    0.05    0.35
  18                   CONDUIT   7459.67   237  07:08      1.47   20.98    0.42
  19                   CONDUIT    496.74   262  21:00      1.47    0.00    0.06
  20                   CONDUIT      0.00     0  00:00      0.00    0.00    0.04
  21                   CONDUIT   3112.55   262  21:09      6.58    0.05    0.58
  22                   CONDUIT      0.00     0  00:00      0.00    0.00    0.28
  23                   CONDUIT   7501.23   237  07:09      2.60    0.19    0.28
  24                   CONDUIT   3124.60   262  21:09      4.01    1.36    0.97
  
  
  ***************************
  Flow Classification Summary
  ***************************
  
  -------------------------------------------------------------------------------------
                      Adjusted    ---------- Fraction of Time in Flow Class ---------- 
                       /Actual         Up    Down  Sub   Sup   Up    Down  Norm  Inlet 
  Conduit               Length    Dry  Dry   Dry   Crit  Crit  Crit  Crit  Ltd   Ctrl  
  -------------------------------------------------------------------------------------
  0                       1.00   1.00  0.00  0.00  0.00  0.00  0.00  0.00  0.00  0.00
  1                       1.00   0.00  1.00  0.00  0.00  0.00  0.00  0.00  0.00  0.00
  2                       1.00   1.00  0.00  0.00  0.00  0.00  0.00  0.00  0.00  0.00
  3                       1.00   0.00  1.00  0.00  0.00  0.00  0.00  0.00  0.00  0.00
  4                       1.00   0.00  0.00  0.00  1.00  0.00  0.00  0.00  0.00  0.00
  5                       1.00   0.00  0.02  0.00  0.98  0.00  0.00  0.00  0.99  0.00
  6                       1.00   0.00  0.11  0.00  0.29  0.60  0.00  0.00  0.76  0.00
  7                       1.00   0.00  0.00  0.00  0.22  0.77  0.00  0.00  0.01  0.00
  8                       1.00   0.00  0.00  0.00  1.00  0.00  0.00  0.00  0.99  0.00
  9                       1.00   0.00  0.00  0.00  0.93  0.07  0.00  0.00  0.99  0.00
  10                      1.00   0.00  0.00  0.00  0.99  0.00  0.00  0.00  0.99  0.00
  11                      1.00   0.00  0.00  0.00  1.00  0.00  0.00  0.00  0.00  0.00
  12                      1.00   0.00  0.55  0.00  0.45  0.00  0.00  0.00  0.99  0.00
  13                      1.00   0.00  0.00  0.00  0.04  0.96  0.00  0.00  0.01  0.00
  14                      1.00   0.00  0.00  0.00  0.99  0.01  0.00  0.00  0.99  0.00
  15                      1.00   0.00  0.00  0.00  0.00  1.00  0.00  0.00  0.97  0.00
  16                      1.00   0.00  0.00  0.00  1.00  0.00  0.00  0.00  0.99  0.00
  17                      1.00   0.00  0.00  0.00  1.00  0.00  0.00  0.00  0.99  0.00
  18                      1.00   0.00  0.00  0.00  1.00  0.00  0.00  0.00  0.00  0.00
  19                      1.00   0.00  0.00  0.00  0.90  0.09  0.00  0.00  0.99  0.00
  20                      1.00   0.00  1.00  0.00  0.00  0.00  0.00  0.00  0.00  0.00
  21                      1.00   0.00  0.00  0.00  1.00  0.00  0.00  0.00  0.99  0.00
  22                      1.00   0.00  1.00  0.00  0.00  0.00  0.00  0.00  0.00  0.00
  23                      1.00   0.00  0.00  0.00  0.86  0.13  0.00  0.00  0.00  0.00
  24                      1.00   0.00  0.05  0.00  0.94  0.00  0.00  0.00  0.11  0.00
  
  
  *************************
  Conduit Surcharge Summary
  *************************
  
  ----------------------------------------------------------------------------
                                                           Hours        Hours 
                         --------- Hours Full --------   Above Full   Capacity
  Conduit                Both Ends  Upstream  Dnstream   Normal Flow   Limited
  ----------------------------------------------------------------------------
  11                          0.01      0.01      0.01   1806.83         0.01
  18                          0.01      0.01      0.01   3683.80         0.01
  21                          0.01      0.01   7230.74      0.01         0.01
  24                          0.01      0.01   7199.80     11.04         0.01
  

  Analysis begun on:  Tue Apr 14 22:03:46 2020
  Analysis ended on:  Tue Apr 14 22:05:07 2020
  Total elapsed time: 00:01:21