
  EPA STORM WATER MANAGEMENT MODEL - VERSION 5.1 (Build 5.1.013)
  --------------------------------------------------------------

  Template input file for Gottesacker karst system.  
  Based on input files created by Zhao Chen. 
  Modified by Chloe Fandel: 
  
  WARNING 04: minimum elevation drop used for Conduit 3
  WARNING 04: minimum elevation drop used for Conduit 4
  WARNING 04: minimum elevation drop used for Conduit 11
  WARNING 04: minimum elevation drop used for Conduit 12
  WARNING 04: minimum elevation drop used for Conduit 15
  
  *********************************************************
  NOTE: The summary statistics displayed in this report are
  based on results found at every computational time step,  
  not just on results from each reporting time step.
  *********************************************************
  
  ****************
  Analysis Options
  ****************
  Flow Units ............... LPS
  Process Models:
    Rainfall/Runoff ........ YES
    RDII ................... NO
    Snowmelt ............... NO
    Groundwater ............ NO
    Flow Routing ........... YES
    Ponding Allowed ........ NO
    Water Quality .......... NO
  Infiltration Method ...... HORTON
  Flow Routing Method ...... DYNWAVE
  Surcharge Method ......... EXTRAN
  Starting Date ............ 11/14/2013 00:00:00
  Ending Date .............. 10/11/2014 00:00:00
  Antecedent Dry Days ...... 0.0
  Report Time Step ......... 01:00:00
  Wet Time Step ............ 00:30:00
  Dry Time Step ............ 01:00:00
  Routing Time Step ........ 30.00 sec
  Variable Time Step ....... YES
  Maximum Trials ........... 8
  Number of Threads ........ 4
  Head Tolerance ........... 0.001524 m
  
  
  **************************        Volume         Depth
  Runoff Quantity Continuity     hectare-m            mm
  **************************     ---------       -------
  Total Precipitation ......      1860.586       693.149
  Evaporation Loss .........         0.000         0.000
  Infiltration Loss ........         0.000         0.000
  Surface Runoff ...........      1857.510       692.003
  Final Storage ............         3.294         1.227
  Continuity Error (%) .....        -0.012
  
  
  **************************        Volume        Volume
  Flow Routing Continuity        hectare-m      10^6 ltr
  **************************     ---------     ---------
  Dry Weather Inflow .......         0.000         0.000
  Wet Weather Inflow .......      1857.487     18575.061
  Groundwater Inflow .......         0.000         0.000
  RDII Inflow ..............         0.000         0.000
  External Inflow ..........         2.505        25.049
  External Outflow .........      1896.811     18968.312
  Flooding Loss ............         0.000         0.000
  Evaporation Loss .........         0.000         0.000
  Exfiltration Loss ........         0.000         0.000
  Initial Stored Volume ....         0.000         0.000
  Final Stored Volume ......         5.124        51.243
  Continuity Error (%) .....        -2.255
  
  
  *************************
  Highest Continuity Errors
  *************************
  Node 15 (-29.66%)
  Node 14 (2.08%)
  
  
  ***************************
  Time-Step Critical Elements
  ***************************
  Link 16 (83.19%)
  Link 18 (2.08%)
  
  
  ********************************
  Highest Flow Instability Indexes
  ********************************
  Link 17 (67)
  Link 18 (62)
  Link 15 (35)
  Link 12 (33)
  Link 4 (33)
  
  
  *************************
  Routing Time Step Summary
  *************************
  Minimum Time Step           :     1.24 sec
  Average Time Step           :    18.00 sec
  Maximum Time Step           :    30.00 sec
  Percent in Steady State     :     0.30
  Average Iterations per Step :     3.66
  Percent Not Converging      :    25.09
  
  
  ***************************
  Subcatchment Runoff Summary
  ***************************
  
  ------------------------------------------------------------------------------------------------------------------------------
                            Total      Total      Total      Total     Imperv       Perv      Total       Total     Peak  Runoff
                           Precip      Runon       Evap      Infil     Runoff     Runoff     Runoff      Runoff   Runoff   Coeff
  Subcatchment                 mm         mm         mm         mm         mm         mm         mm    10^6 ltr      LPS
  ------------------------------------------------------------------------------------------------------------------------------
  S1                         0.00       0.00       0.00       0.00       0.00       0.00       0.00        0.00     0.00   0.000
  S2                         0.00       0.00       0.00       0.00       0.00       0.00       0.00        0.00     0.00   0.000
  S3                         0.00       0.00       0.00       0.00       0.00       0.00       0.00        0.00     0.00   0.000
  S4                      1061.54       0.00       0.00       0.00    1061.69       0.00    1061.69      368.94   262.37   1.000
  S5                      1385.10       0.00       0.00       0.00    1385.52       0.00    1385.52      498.79   466.98   1.000
  S6                       977.59       0.00       0.00       0.00     978.10       0.00     978.10      100.26    95.18   1.001
  S7                      1292.86       0.00       0.00       0.00    1293.18       0.00    1293.18      484.95   498.34   1.000
  S8                       936.91       0.00       0.00       0.00     936.87       0.00     936.87      592.57   423.47   1.000
  S9                      1448.24       0.00       0.00       0.00    1448.36       0.00    1448.36     1100.76   905.01   1.000
  S10                      968.87       0.00       0.00       0.00     966.94       0.00     966.94    14774.92  5766.92   0.998
  S11                        0.00       0.00       0.00       0.00       0.00       0.00       0.00        0.00     0.00   0.000
  S12                     1364.67       0.00       0.00       0.00    1365.98       0.00    1365.98      102.45   112.96   1.001
  S13                     1369.60       0.00       0.00       0.00    1371.06       0.00    1371.06       82.26    92.06   1.001
  S14                        0.00       0.00       0.00       0.00       0.00       0.00       0.00        0.00     0.00   0.000
  S15                        0.00       0.00       0.00       0.00       0.00       0.00       0.00        0.00     0.00   0.000
  S16                       98.86       0.00       0.00       0.00      98.41       0.00      98.41      418.25   117.41   0.995
  S17                     1359.91       0.00       0.00       0.00    1361.72       0.00    1361.72       51.06    60.01   1.001
  S18                        0.00       0.00       0.00       0.00       0.00       0.00       0.00        0.00     0.00   0.000
  S19                        0.00       0.00       0.00       0.00       0.00       0.00       0.00        0.00     0.00   0.000
  
  
  ******************
  Node Depth Summary
  ******************
  
  ---------------------------------------------------------------------------------
                                 Average  Maximum  Maximum  Time of Max    Reported
                                   Depth    Depth      HGL   Occurrence   Max Depth
  Node                 Type       Meters   Meters   Meters  days hr:min      Meters
  ---------------------------------------------------------------------------------
  0                    JUNCTION     0.00     0.00  1872.50     0  00:00        0.00
  1                    JUNCTION     0.00     0.00  1432.50     0  00:00        0.00
  2                    JUNCTION     0.00     0.00  1405.00     0  00:00        0.00
  3                    JUNCTION     0.03     0.15  1955.15   259  03:08        0.15
  4                    JUNCTION     0.04     0.24  1762.74   262  21:02        0.24
  5                    JUNCTION     0.04     0.21  1652.71   262  21:09        0.21
  6                    JUNCTION     0.03     0.20  1680.20   262  21:03        0.20
  7                    JUNCTION     0.07     0.33  1322.83   262  21:11        0.33
  8                    JUNCTION     0.32     2.94  1132.94   237  07:07        2.93
  9                    JUNCTION    20.39    30.61  1133.11   237  07:02       30.61
  10                   JUNCTION    20.38    30.60  1133.10   237  07:02       30.60
  11                   JUNCTION    20.39    30.60  1133.10   237  07:02       30.60
  12                   JUNCTION    20.39    30.60  1133.10   237  07:02       30.60
  13                   JUNCTION     0.03     0.43  1130.43   237  07:09        0.43
  14                   JUNCTION     3.97     5.90  1080.90   237  07:09        5.90
  15                   JUNCTION    11.86    15.34  1035.34   237  07:09       15.34
  16                   OUTFALL      0.35     0.70  1120.70   237  07:02        0.70
  17                   OUTFALL      0.05     0.77  1080.77   237  07:10        0.77
  18                   OUTFALL      0.02     0.41  1035.41   235  21:15        0.35
  
  
  *******************
  Node Inflow Summary
  *******************
  
  -------------------------------------------------------------------------------------------------
                                  Maximum  Maximum                  Lateral       Total        Flow
                                  Lateral    Total  Time of Max      Inflow      Inflow     Balance
                                   Inflow   Inflow   Occurrence      Volume      Volume       Error
  Node                 Type           LPS      LPS  days hr:min    10^6 ltr    10^6 ltr     Percent
  -------------------------------------------------------------------------------------------------
  0                    JUNCTION      0.00     0.00     0  00:00           0           0       0.000 ltr
  1                    JUNCTION      0.00     0.00     0  00:00           0           0       0.000 ltr
  2                    JUNCTION      0.00     0.00     0  00:00           0           0       0.000 ltr
  3                    JUNCTION    263.34   263.34   259  03:00         371         371      -0.019
  4                    JUNCTION    467.05   467.05   262  21:00         499         499       0.000
  5                    JUNCTION     95.68   756.47   262  21:02         102         972       0.010
  6                    JUNCTION    498.34   498.34   262  21:00         485         485       0.000
  7                    JUNCTION    423.95  1657.28   262  21:03         594    2.05e+03      -0.035
  8                    JUNCTION    905.01  5726.68   237  07:00     1.1e+03    4.87e+03       0.017
  9                    JUNCTION   5766.97 43111.14    41  11:05    1.48e+04    1.48e+04       0.196
  10                   JUNCTION      0.00 26169.58    41  11:05           0    1.66e+04       0.077
  11                   JUNCTION    112.96 68965.48    41  11:06         102    5.91e+03      -0.375
  12                   JUNCTION     92.06 30004.68    41  11:56        82.3        97.9       0.000
  13                   JUNCTION      0.00  5684.51   237  07:07           0     3.3e+03       0.006
  14                   JUNCTION      0.00  3912.07   237  07:10           0    2.27e+03       2.119
  15                   JUNCTION    117.41  1888.46   237  07:09         418    1.46e+03     -22.875
  16                   OUTFALL      60.01  1862.09   259  03:02        51.1    1.48e+04       0.000
  17                   OUTFALL       0.00  3912.07   237  07:10           0    2.22e+03       0.000
  18                   OUTFALL       0.00  3157.29   235  21:15           0    1.92e+03       0.000
  
  
  **********************
  Node Surcharge Summary
  **********************
  
  Surcharging occurs when water rises above the top of the highest conduit.
  ---------------------------------------------------------------------
                                               Max. Height   Min. Depth
                                   Hours       Above Crown    Below Rim
  Node                 Type      Surcharged         Meters       Meters
  ---------------------------------------------------------------------
  9                    JUNCTION     6948.10         26.607        0.000
  10                   JUNCTION     6948.14         26.597        0.000
  11                   JUNCTION     6948.24         26.603        0.000
  12                   JUNCTION     6948.21         26.603        0.000
  14                   JUNCTION     4879.71          1.903        0.000
  15                   JUNCTION     5122.67         11.342        0.000
  
  
  *********************
  Node Flooding Summary
  *********************
  
  No nodes were flooded.
  
  
  ***********************
  Outfall Loading Summary
  ***********************
  
  -----------------------------------------------------------
                         Flow       Avg       Max       Total
                         Freq      Flow      Flow      Volume
  Outfall Node           Pcnt       LPS       LPS    10^6 ltr
  -----------------------------------------------------------
  16                    91.61    794.10   1862.09   14848.259
  17                    73.37    178.74   3912.07    2221.637
  18                    76.12    130.75   3157.29    1916.807
  -----------------------------------------------------------
  System                80.37   1103.59   3157.29   18986.703
  
  
  ********************
  Link Flow Summary
  ********************
  
  -----------------------------------------------------------------------------
                                 Maximum  Time of Max   Maximum    Max/    Max/
                                  |Flow|   Occurrence   |Veloc|    Full    Full
  Link                 Type          LPS  days hr:min     m/sec    Flow   Depth
  -----------------------------------------------------------------------------
  0                    CONDUIT      0.00     0  00:00      0.00    0.00    0.00
  1                    CONDUIT      0.00     0  00:00      0.00    0.00    0.00
  2                    CONDUIT      0.00     0  00:00      0.00    0.00    0.50
  3                    CONDUIT  22423.97    41  11:05      1.82   36.42    1.00
  4                    CONDUIT  29571.22    41  11:06      2.78   48.03    1.00
  5                    CONDUIT    260.31   259  03:08      1.35    0.00    0.04
  6                    CONDUIT    462.06   262  21:03      1.64    0.01    0.06
  7                    CONDUIT    748.42   262  21:09      2.11    0.01    0.07
  8                    CONDUIT    492.74   262  21:03      1.37    0.01    0.07
  9                    CONDUIT   1645.64   262  21:11      1.57    0.01    0.40
  10                   CONDUIT   4032.01   237  07:01      0.35    0.08    0.87
  11                   CONDUIT   5684.51   237  07:07      1.13   33.29    0.42
  12                   CONDUIT  25289.47    41  11:05      2.34   48.84    1.00
  13                   CONDUIT   3912.07   237  07:10      0.55    0.03    0.55
  14                   CONDUIT   1771.53   237  07:10      0.25    0.03    0.55
  15                   CONDUIT  30002.13    41  11:56      2.39   84.39    1.00
  16                   CONDUIT   1824.20   237  07:02      2.56    0.84    0.85
  17                   CONDUIT   3912.07   237  07:10      0.50    0.10    0.60
  18                   CONDUIT   3157.29   235  21:15      0.50    0.02    0.56
  
  
  ***************************
  Flow Classification Summary
  ***************************
  
  -------------------------------------------------------------------------------------
                      Adjusted    ---------- Fraction of Time in Flow Class ---------- 
                       /Actual         Up    Down  Sub   Sup   Up    Down  Norm  Inlet 
  Conduit               Length    Dry  Dry   Dry   Crit  Crit  Crit  Crit  Ltd   Ctrl  
  -------------------------------------------------------------------------------------
  0                       1.00   1.00  0.00  0.00  0.00  0.00  0.00  0.00  0.00  0.00
  1                       1.00   1.00  0.00  0.00  0.00  0.00  0.00  0.00  0.00  0.00
  2                       1.00   0.00  1.00  0.00  0.00  0.00  0.00  0.00  0.00  0.00
  3                       1.00   0.00  0.00  0.00  1.00  0.00  0.00  0.00  0.00  0.00
  4                       1.00   0.00  0.00  0.00  1.00  0.00  0.00  0.00  0.00  0.00
  5                       1.00   0.00  0.00  0.00  0.68  0.32  0.00  0.00  0.94  0.00
  6                       1.00   0.00  0.00  0.00  0.70  0.29  0.00  0.00  0.32  0.00
  7                       1.00   0.00  0.00  0.00  0.43  0.56  0.00  0.00  0.99  0.00
  8                       1.00   0.00  0.00  0.00  0.98  0.02  0.00  0.00  0.99  0.00
  9                       1.00   0.00  0.00  0.00  0.96  0.04  0.00  0.00  0.99  0.00
  10                      1.00   0.00  0.00  0.00  1.00  0.00  0.00  0.00  0.87  0.00
  11                      1.00   0.00  0.00  0.00  1.00  0.00  0.00  0.00  0.00  0.00
  12                      1.00   0.00  0.00  0.00  1.00  0.00  0.00  0.00  0.00  0.00
  13                      1.00   0.00  0.03  0.00  0.97  0.00  0.00  0.00  0.99  0.00
  14                      1.00   0.00  0.03  0.00  0.97  0.00  0.00  0.00  0.99  0.00
  15                      1.00   0.00  0.00  0.00  1.00  0.00  0.00  0.00  0.00  0.00
  16                      1.00   0.00  0.10  0.00  0.89  0.00  0.00  0.00  0.01  0.00
  17                      1.00   0.00  0.26  0.00  0.74  0.00  0.00  0.00  0.23  0.00
  18                      1.00   0.00  0.23  0.00  0.76  0.00  0.00  0.00  0.41  0.00
  
  
  *************************
  Conduit Surcharge Summary
  *************************
  
  ----------------------------------------------------------------------------
                                                           Hours        Hours 
                         --------- Hours Full --------   Above Full   Capacity
  Conduit                Both Ends  Upstream  Dnstream   Normal Flow   Limited
  ----------------------------------------------------------------------------
  3                        6948.09   6948.10   6948.14   1400.85      1173.08
  4                        6948.09   6948.10   6948.18    601.37       917.11
  10                          0.01      0.01   6948.14      0.01         0.01
  11                          0.01      0.01      0.01    732.00         0.01
  12                       6948.09   6948.14   6948.18    925.40       896.17
  13                          0.01      0.01   4879.71      0.01         0.01
  14                          0.01      0.01   5122.67      0.01         0.01
  15                       6948.09   6948.18   6948.14      0.44       779.23
  16                          0.01      0.01   6506.67      0.01         0.01
  17                          0.01      0.01   4878.73      0.01         0.01
  18                          0.01      0.01   5057.07      0.01         0.01
  

  Analysis begun on:  Tue Apr 14 17:35:28 2020
  Analysis ended on:  Tue Apr 14 17:36:47 2020
  Total elapsed time: 00:01:19