
  EPA STORM WATER MANAGEMENT MODEL - VERSION 5.1 (Build 5.1.013)
  --------------------------------------------------------------

  Template input file for Gottesacker karst system.  
  Based on input files created by Zhao Chen. 
  Modified by Chloe Fandel: 
  
  WARNING 04: minimum elevation drop used for Conduit 4
  WARNING 04: minimum elevation drop used for Conduit 5
  WARNING 04: minimum elevation drop used for Conduit 6
  WARNING 08: elevation drop exceeds length for Conduit 8
  WARNING 04: minimum elevation drop used for Conduit 30
  WARNING 04: minimum elevation drop used for Conduit 32
  WARNING 04: minimum elevation drop used for Conduit 33
  WARNING 04: minimum elevation drop used for Conduit 36
  
  *********************************************************
  NOTE: The summary statistics displayed in this report are
  based on results found at every computational time step,  
  not just on results from each reporting time step.
  *********************************************************
  
  ****************
  Analysis Options
  ****************
  Flow Units ............... LPS
  Process Models:
    Rainfall/Runoff ........ YES
    RDII ................... NO
    Snowmelt ............... NO
    Groundwater ............ NO
    Flow Routing ........... YES
    Ponding Allowed ........ NO
    Water Quality .......... NO
  Infiltration Method ...... HORTON
  Flow Routing Method ...... DYNWAVE
  Surcharge Method ......... EXTRAN
  Starting Date ............ 11/14/2013 00:00:00
  Ending Date .............. 10/11/2014 00:00:00
  Antecedent Dry Days ...... 0.0
  Report Time Step ......... 01:00:00
  Wet Time Step ............ 00:30:00
  Dry Time Step ............ 01:00:00
  Routing Time Step ........ 30.00 sec
  Variable Time Step ....... YES
  Maximum Trials ........... 8
  Number of Threads ........ 4
  Head Tolerance ........... 0.001524 m
  
  
  **************************        Volume         Depth
  Runoff Quantity Continuity     hectare-m            mm
  **************************     ---------       -------
  Total Precipitation ......      2396.180       761.417
  Evaporation Loss .........         0.000         0.000
  Infiltration Loss ........         0.000         0.000
  Surface Runoff ...........      2393.338       760.514
  Final Storage ............         3.240         1.030
  Continuity Error (%) .....        -0.017
  
  
  **************************        Volume        Volume
  Flow Routing Continuity        hectare-m      10^6 ltr
  **************************     ---------     ---------
  Dry Weather Inflow .......         0.000         0.000
  Wet Weather Inflow .......      2393.290     23933.150
  Groundwater Inflow .......         0.000         0.000
  RDII Inflow ..............         0.000         0.000
  External Inflow ..........         2.021        20.207
  External Outflow .........      4283.380     42834.242
  Flooding Loss ............      1069.157     10691.678
  Evaporation Loss .........         0.000         0.000
  Exfiltration Loss ........         0.000         0.000
  Initial Stored Volume ....         0.000         0.000
  Final Stored Volume ......         0.204         2.040
  Continuity Error (%) .....      -123.467
  
  
  *************************
  Highest Continuity Errors
  *************************
  Node 11 (-155.60%)
  Node 3 (-28.84%)
  Node 8 (-9.80%)
  Node 6 (-8.96%)
  Node 5 (-6.42%)
  
  
  ***************************
  Time-Step Critical Elements
  ***************************
  Link 40 (48.07%)
  Link 9 (1.27%)
  Link 1 (1.15%)
  
  
  ********************************
  Highest Flow Instability Indexes
  ********************************
  Link 16 (79)
  Link 17 (70)
  Link 40 (43)
  Link 11 (31)
  Link 8 (26)
  
  
  *************************
  Routing Time Step Summary
  *************************
  Minimum Time Step           :     0.50 sec
  Average Time Step           :    21.93 sec
  Maximum Time Step           :    30.00 sec
  Percent in Steady State     :     0.30
  Average Iterations per Step :     6.15
  Percent Not Converging      :    64.14
  
  
  ***************************
  Subcatchment Runoff Summary
  ***************************
  
  ------------------------------------------------------------------------------------------------------------------------------
                            Total      Total      Total      Total     Imperv       Perv      Total       Total     Peak  Runoff
                           Precip      Runon       Evap      Infil     Runoff     Runoff     Runoff      Runoff   Runoff   Coeff
  Subcatchment                 mm         mm         mm         mm         mm         mm         mm    10^6 ltr      LPS
  ------------------------------------------------------------------------------------------------------------------------------
  S1                         0.00       0.00       0.00       0.00       0.00       0.00       0.00        0.00     0.00   0.000
  S2                         0.00       0.00       0.00       0.00       0.00       0.00       0.00        0.00     0.00   0.000
  S5                         0.00       0.00       0.00       0.00       0.00       0.00       0.00        0.00     0.00   0.000
  S6                         0.00       0.00       0.00       0.00       0.00       0.00       0.00        0.00     0.00   0.000
  S7                         0.00       0.00       0.00       0.00       0.00       0.00       0.00        0.00     0.00   0.000
  S8                         0.00       0.00       0.00       0.00       0.00       0.00       0.00        0.00     0.00   0.000
  S9                         0.00       0.00       0.00       0.00       0.00       0.00       0.00        0.00     0.00   0.000
  S10                        0.00       0.00       0.00       0.00       0.00       0.00       0.00        0.00     0.00   0.000
  S11                     1061.54       0.00       0.00       0.00    1061.69       0.00    1061.69      368.94   262.37   1.000
  S12                     1029.54       0.00       0.00       0.00    1030.00       0.00    1030.00      105.58    87.48   1.000
  S13                     1024.61       0.00       0.00       0.00    1024.82       0.00    1024.82      266.45   198.54   1.000
  S14                     1385.10       0.00       0.00       0.00    1385.52       0.00    1385.52      498.79   466.98   1.000
  S15                     1033.18       0.00       0.00       0.00    1033.25       0.00    1033.25      322.89   232.04   1.000
  S16                     1133.59       0.00       0.00       0.00    1133.83       0.00    1133.83      422.35   387.86   1.000
  S17                      984.28       0.00       0.00       0.00     984.37       0.00     984.37      433.13   350.20   1.000
  S18                      977.59       0.00       0.00       0.00     978.12       0.00     978.12       92.92    89.10   1.001
  S19                     1292.86       0.00       0.00       0.00    1293.18       0.00    1293.18      484.95   498.34   1.000
  S20                     1150.07       0.00       0.00       0.00    1149.95       0.00    1149.95     1129.83   806.26   1.000
  S21                      938.05       0.00       0.00       0.00     938.03       0.00     938.03      546.40   400.26   1.000
  S22                     1454.28       0.00       0.00       0.00    1454.49       0.00    1454.49      930.88   860.21   1.000
  S23                      770.39       0.00       0.00       0.00     770.36       0.00     770.36      381.33   362.19   1.000
  S24                        0.00       0.00       0.00       0.00       0.00       0.00       0.00        0.00     0.00   0.000
  S25                     1148.97       0.00       0.00       0.00    1149.08       0.00    1149.08      623.38   465.54   1.000
  S26                      117.59       0.00       0.00       0.00     117.38       0.00     117.38       85.98    35.47   0.998
  S27                        0.00       0.00       0.00       0.00       0.00       0.00       0.00        0.00     0.00   0.000
  S28                     1448.24       0.00       0.00       0.00    1448.37       0.00    1448.37     1086.28   895.81   1.000
  S29                     1111.13       0.00       0.00       0.00    1110.77       0.00    1110.77     1896.65  1119.61   1.000
  S30                        0.00       0.00       0.00       0.00       0.00       0.00       0.00        0.00     0.00   0.000
  S31                      921.61       0.00       0.00       0.00     919.72       0.00     919.72    13929.20  5384.29   0.998
  S32                     1362.10       0.00       0.00       0.00    1363.25       0.00    1363.25      132.92   143.90   1.001
  S33                        0.00       0.00       0.00       0.00       0.00       0.00       0.00        0.00     0.00   0.000
  S34                        0.00       0.00       0.00       0.00       0.00       0.00       0.00        0.00     0.00   0.000
  S35                        0.00       0.00       0.00       0.00       0.00       0.00       0.00        0.00     0.00   0.000
  S36                        0.00       0.00       0.00       0.00       0.00       0.00       0.00        0.00     0.00   0.000
  S37                     1365.11       0.00       0.00       0.00    1366.04       0.00    1366.04      194.66   201.10   1.001
  S38                        0.00       0.00       0.00       0.00       0.00       0.00       0.00        0.00     0.00   0.000
  S39                        0.00       0.00       0.00       0.00       0.00       0.00       0.00        0.00     0.00   0.000
  
  
  ******************
  Node Depth Summary
  ******************
  
  ---------------------------------------------------------------------------------
                                 Average  Maximum  Maximum  Time of Max    Reported
                                   Depth    Depth      HGL   Occurrence   Max Depth
  Node                 Type       Meters   Meters   Meters  days hr:min      Meters
  ---------------------------------------------------------------------------------
  0                    JUNCTION     0.00     0.50  1873.00   294  12:42        0.05
  1                    JUNCTION     0.01   204.00  1966.50   238  17:32       14.11
  2                    JUNCTION     7.43   204.00  1856.50   238  17:36      136.89
  3                    JUNCTION     1.57   204.00  1884.00   238  17:26      163.37
  4                    JUNCTION     7.43   204.00  1856.50   238  17:30      130.01
  5                    JUNCTION    25.50   204.00  1801.50   238  17:22      175.79
  6                    JUNCTION     7.42   204.00  1856.50   238  17:27      147.48
  7                    JUNCTION     1.57   204.00  1884.00   238  17:21      107.64
  8                    JUNCTION     7.42   204.00  1856.50   238  17:27      124.54
  9                    JUNCTION     0.84    21.86  1454.36   262  21:55        8.60
  10                   JUNCTION     0.03     0.14  1955.14   259  03:05        0.14
  11                   JUNCTION     3.02    49.03  1866.53   291  06:04       46.10
  12                   JUNCTION     0.00     0.02  1927.52   259  03:00        0.02
  13                   JUNCTION     0.04     0.19  1762.69   262  21:01        0.19
  14                   JUNCTION     7.46   201.00  1991.00   173  22:56      178.70
  15                   JUNCTION     0.03     0.16  1707.66   262  21:00        0.16
  16                   JUNCTION     0.07     0.33  1652.83   262  21:03        0.33
  17                   JUNCTION    40.07   204.00  1856.50   168  20:51      204.00
  18                   JUNCTION     0.03     0.18  1680.18   262  21:00        0.18
  19                   JUNCTION     0.07     0.29  1570.29   262  21:01        0.29
  20                   JUNCTION    47.60   201.00  1716.00   256  16:39      201.00
  21                   JUNCTION     0.09     0.42  1515.42   262  21:06        0.42
  22                   JUNCTION     0.05     0.25  1515.25   262  21:03        0.25
  23                   JUNCTION     0.00     0.00  1570.00     0  00:00        0.00
  24                   JUNCTION    64.94   201.00  1441.00   158  20:14      201.00
  25                   JUNCTION     0.34    95.02  1472.52   262  21:29       85.59
  26                   JUNCTION     0.01    40.02  1472.52   262  21:30       30.59
  27                   JUNCTION    11.62   204.00  1389.00   227  18:56      204.00
  28                   JUNCTION    29.66   201.00  1331.00   301  22:30      198.49
  29                   JUNCTION    28.94   200.14  1330.14   259  03:00      200.14
  30                   JUNCTION    51.29   201.00  1331.00   163  19:44      201.00
  31                   JUNCTION    33.59    76.09  1178.59   259  03:00       76.09
  32                   JUNCTION     2.09    45.30  1175.30   259  03:00       45.29
  33                   JUNCTION    27.47    96.42  1171.42   259  03:01       96.40
  34                   JUNCTION    22.57   128.11  1203.11    26  10:10       75.35
  35                   JUNCTION    14.51    21.00  1041.00   259  03:01       21.00
  36                   OUTFALL      0.51     0.89  1120.89   259  03:00        0.89
  37                   OUTFALL      0.46     0.89  1080.89   259  03:00        0.89
  38                   OUTFALL      0.14     0.52  1035.52   259  03:01        0.52
  
  
  *******************
  Node Inflow Summary
  *******************
  
  -------------------------------------------------------------------------------------------------
                                  Maximum  Maximum                  Lateral       Total        Flow
                                  Lateral    Total  Time of Max      Inflow      Inflow     Balance
                                   Inflow   Inflow   Occurrence      Volume      Volume       Error
  Node                 Type           LPS      LPS  days hr:min    10^6 ltr    10^6 ltr     Percent
  -------------------------------------------------------------------------------------------------
  0                    JUNCTION      0.00 14199.39   294  12:42           0        2.34       2.332
  1                    JUNCTION      0.00526406.76   252  02:07           0         134     -35.873
  2                    JUNCTION      0.0014187208.50   294  12:38           0    6.33e+03      -5.408
  3                    JUNCTION      0.0010174933.48   294  12:32           0    5.55e+03     -22.382
  4                    JUNCTION      0.009940405.04   294  12:35           0    5.41e+03      -1.714
  5                    JUNCTION      0.008320154.19   262  07:08           0    6.61e+03      -6.034
  6                    JUNCTION      0.0016195583.73   294  12:41           0    1.01e+04      -8.227
  7                    JUNCTION      0.006300366.04   262  07:09           0    2.71e+03       0.000
  8                    JUNCTION      0.004242251.24   238  17:40           0    6.03e+03      -8.926
  9                    JUNCTION      0.00   174.52   186  19:23           0        44.6       0.064
  10                   JUNCTION    263.34   263.34   259  03:00         371         371      -0.041
  11                   JUNCTION     88.54 17736.64   221  17:40         108    9.12e+03     -60.876
  12                   JUNCTION    199.49   199.49   259  03:00         268         268       0.000
  13                   JUNCTION    467.05   467.05   262  21:00         499         499      -0.008
  14                   JUNCTION    233.11  2234.49   174  11:54         325         487       0.000
  15                   JUNCTION    388.18   388.18   262  21:00         424         424       0.000
  16                   JUNCTION    350.65  1203.32   262  21:00         435    1.36e+03      -0.002
  17                   JUNCTION     89.60 22190.80   259  03:00        94.9    2.39e+04      -2.494
  18                   JUNCTION    498.34   498.34   262  21:00         485         485      -0.007
  19                   JUNCTION    806.55   806.55   262  21:00    1.13e+03    1.13e+03       0.000
  20                   JUNCTION    400.74  2765.29   290  15:51         548    2.28e+04       0.013
  21                   JUNCTION    860.21  2851.46   262  21:01         931    3.42e+03      -0.091
  22                   JUNCTION    362.19   858.72   262  21:00         381         866      -0.026
  23                   JUNCTION      0.00     0.00     0  00:00           0           0       0.000 ltr
  24                   JUNCTION    465.82  2567.24   262  21:00         624    2.27e+04       0.004
  25                   JUNCTION     35.47  1116.03   262  20:58          86         959       0.003
  26                   JUNCTION      0.00   295.98   262  21:02           0      0.0712       0.000
  27                   JUNCTION    895.81 30122.25   301  22:30    1.09e+03    5.47e+03       0.050
  28                   JUNCTION   1120.03 61012.82   301  22:30     1.9e+03    1.71e+04       0.001
  29                   JUNCTION      0.00 12185.77   301  22:32           0    8.37e+03      -0.012
  30                   JUNCTION   5384.34 11816.46   301  22:29    1.39e+04     3.6e+04       0.000
  31                   JUNCTION    143.90  2495.37   259  03:00         133    2.08e+04       0.001
  32                   JUNCTION      0.00  2322.08   262  19:26           0    7.77e+03      -0.001
  33                   JUNCTION      0.00 13018.73    79  10:07           0    1.85e+04       0.012
  34                   JUNCTION      0.00  8404.89    26  10:10           0    1.85e+04       0.011
  35                   JUNCTION      0.00  1231.87   259  03:01           0    3.37e+03       0.180
  36                   OUTFALL     201.10  2696.47   259  03:00         195     2.1e+04       0.000
  37                   OUTFALL       0.00  2566.03   259  03:00           0    1.85e+04       0.000
  38                   OUTFALL       0.00  1231.87   259  03:01           0    3.37e+03       0.000
  
  
  **********************
  Node Surcharge Summary
  **********************
  
  Surcharging occurs when water rises above the top of the highest conduit.
  ---------------------------------------------------------------------
                                               Max. Height   Min. Depth
                                   Hours       Above Crown    Below Rim
  Node                 Type      Surcharged         Meters       Meters
  ---------------------------------------------------------------------
  1                    JUNCTION        0.66        200.000        0.000
  2                    JUNCTION     1252.24        200.000        0.000
  3                    JUNCTION      389.17        200.000        0.000
  4                    JUNCTION     1251.97        200.000        0.000
  5                    JUNCTION     1650.03        200.000        0.000
  6                    JUNCTION     1253.34        200.000        0.000
  7                    JUNCTION      391.59        200.000        0.000
  8                    JUNCTION     1252.41        200.000        0.000
  9                    JUNCTION      353.83         20.864        0.000
  11                   JUNCTION      312.84         45.027        0.000
  14                   JUNCTION      770.79        200.000        0.000
  17                   JUNCTION     1132.09        200.000        0.000
  20                   JUNCTION     1750.34        200.000        0.000
  24                   JUNCTION     2060.05        200.000        0.000
  25                   JUNCTION       19.58         91.021        0.000
  26                   JUNCTION        1.94         39.024        0.000
  27                   JUNCTION      589.00        200.000        0.000
  28                   JUNCTION     2595.32        200.000        0.000
  29                   JUNCTION     2616.32        199.142        0.000
  30                   JUNCTION     4099.47        200.000        0.000
  31                   JUNCTION     7883.51         75.089        0.000
  32                   JUNCTION      268.81         44.301        0.000
  33                   JUNCTION     7849.06         95.417        0.000
  34                   JUNCTION     7849.00        127.108        0.000
  35                   JUNCTION     7028.78         20.002        0.000
  
  
  *********************
  Node Flooding Summary
  *********************
  
  Flooding refers to all water that overflows a node, whether it ponds or not.
  --------------------------------------------------------------------------
                                                             Total   Maximum
                                 Maximum   Time of Max       Flood    Ponded
                        Hours       Rate    Occurrence      Volume     Depth
  Node                 Flooded       LPS   days hr:min    10^6 ltr    Meters
  --------------------------------------------------------------------------
  1                       0.01 348008.47    294  12:32       0.202   200.000
  2                       0.07 8771484.46    262  07:03     672.411   200.000
  3                       0.07 9219269.84    294  12:32     847.158   200.000
  4                       0.03 6149254.16    294  12:35     328.684   200.000
  5                       0.40 4232188.29    262  07:03    1129.217   200.000
  6                       0.13 9747637.69    261  08:04    1396.816   200.000
  7                       0.12 5563864.29    294  12:31     470.676   200.000
  8                       0.06 2943831.43    294  12:31     170.667   200.000
  14                      2.67   1094.74    192  16:17       0.599   200.000
  17                    245.74  20131.64    259  03:00    3782.403   200.000
  20                     15.27    214.50    256  17:00       4.724   200.000
  24                    391.52    942.35    259  03:00     579.776   200.000
  27                     15.78   2048.62    262  21:12      30.900   200.000
  28                      0.01  23898.93    301  22:30       0.717   200.000
  30                    187.09   4157.58    237  07:00     856.655   200.000
  
  
  ***********************
  Outfall Loading Summary
  ***********************
  
  -----------------------------------------------------------
                         Flow       Avg       Max       Total
                         Freq      Flow      Flow      Volume
  Outfall Node           Pcnt       LPS       LPS    10^6 ltr
  -----------------------------------------------------------
  36                    99.44   1011.22   2696.47   20962.011
  37                    97.99    953.13   2566.03   18506.262
  38                    88.77    244.22   1231.87    3367.026
  -----------------------------------------------------------
  System                95.40   2208.58   1231.87   42835.300
  
  
  ********************
  Link Flow Summary
  ********************
  
  -----------------------------------------------------------------------------
                                 Maximum  Time of Max   Maximum    Max/    Max/
                                  |Flow|   Occurrence   |Veloc|    Full    Full
  Link                 Type          LPS  days hr:min     m/sec    Flow   Depth
  -----------------------------------------------------------------------------
  0                    CONDUIT  14199.39   294  12:42      6.99    0.11    0.57
  1                    CONDUIT 10286520.45   294  12:42    >50.00    0.01    1.00
  2                    CONDUIT 8415741.62   294  12:35    >50.00   45.50    1.00
  3                    CONDUIT 805972.60   262  07:09    >50.00    4.61    1.00
  4                    CONDUIT 4484395.10   294  12:38    >50.00  7282.94    1.00
  5                    CONDUIT 1992275.54   294  12:44    >50.00  6143.82    1.00
  6                    CONDUIT 5906856.62   294  12:36    >50.00  9593.11    1.00
  7                    CONDUIT 3162918.85   290  09:15    >50.00   12.09    1.00
  8                    CONDUIT 5929370.69   262  07:08    >50.00   23.78    1.00
  9                    CONDUIT 10691190.43   294  12:41    >50.00    0.02    1.00
  10                   CONDUIT   1084.68   261  08:05      1.58    1.85    1.00
  11                   CONDUIT   2422.10   249  18:26      3.17    1.16    1.00
  12                   CONDUIT   2264.85   290  15:49      3.08    1.05    1.00
  13                   CONDUIT    212.54   241  01:07      0.35    0.26    1.00
  14                   CONDUIT   2177.10   190  03:57      9.51    1.34    1.00
  15                   CONDUIT    261.54   259  03:05      0.27    0.00    0.52
  16                   CONDUIT  21878.71   259  03:00      2.13    0.26    1.00
  17                   CONDUIT  16173.81   221  16:59     31.95    0.00    0.50
  18                   CONDUIT  10233.78   173  23:06     13.03    6.31    1.00
  19                   CONDUIT    465.37   262  21:01      1.31    0.00    0.07
  20                   CONDUIT    387.84   262  21:00      1.22    0.00    0.06
  21                   CONDUIT   1193.80   262  21:03      2.00    0.01    0.09
  22                   CONDUIT    803.56   262  21:01      1.47    0.01    0.09
  23                   CONDUIT   2833.09   262  21:06      1.41    0.02    0.55
  24                   CONDUIT    496.92   262  21:00      1.87    0.00    0.05
  25                   CONDUIT    854.14   262  21:03      1.29    0.01    0.53
  26                   CONDUIT      0.00     0  00:00      0.00    0.00    0.03
  27                   CONDUIT    813.30   262  21:30      1.29    0.65    1.00
  28                   CONDUIT  29875.79   301  22:30    >50.00   12.72    1.00
  29                   CONDUIT    295.98   262  21:02      0.61    0.00    1.00
  30                   CONDUIT   9934.79   301  22:29     12.65  2687.56    1.00
  31                   CONDUIT   2386.96   259  15:20      4.21    2.37    1.00
  32                   CONDUIT  60900.76   301  22:30    >50.00  10731.02    1.00
  33                   CONDUIT   2209.73   262  19:26      2.90  810.53    1.00
  34                   CONDUIT   2028.32   262  19:24      2.58    1.82    1.00
  35                   CONDUIT    702.98   262  19:27      1.18    0.25    1.00
  36                   CONDUIT  13015.78    79  10:07     16.57  1324.12    1.00
  37                   CONDUIT   1231.87   259  03:01      1.57    1.10    1.00
  38                   CONDUIT   2495.37   259  03:00      3.25    1.93    0.94
  39                   CONDUIT   2566.03   259  03:00      3.34    3.97    0.96
  40                   CONDUIT   1231.87   259  03:01      1.92    0.54    0.76
  
  
  ***************************
  Flow Classification Summary
  ***************************
  
  -------------------------------------------------------------------------------------
                      Adjusted    ---------- Fraction of Time in Flow Class ---------- 
                       /Actual         Up    Down  Sub   Sup   Up    Down  Norm  Inlet 
  Conduit               Length    Dry  Dry   Dry   Crit  Crit  Crit  Crit  Ltd   Ctrl  
  -------------------------------------------------------------------------------------
  0                       1.00   0.85  0.14  0.00  0.01  0.00  0.00  0.00  0.14  0.00
  1                       1.00   0.55  0.30  0.00  0.15  0.00  0.00  0.00  0.26  0.00
  2                       1.00   0.55  0.30  0.00  0.15  0.00  0.00  0.00  0.08  0.00
  3                       1.00   0.55  0.45  0.00  0.00  0.00  0.00  0.00  0.28  0.00
  4                       1.00   0.55  0.00  0.00  0.45  0.00  0.00  0.00  0.00  0.00
  5                       1.00   0.55  0.00  0.00  0.45  0.00  0.00  0.00  0.00  0.00
  6                       1.00   0.59  0.00  0.00  0.41  0.00  0.00  0.00  0.00  0.00
  7                       1.00   0.29  0.30  0.00  0.41  0.00  0.00  0.00  0.38  0.00
  8                       1.00   0.29  0.37  0.00  0.34  0.00  0.00  0.00  0.38  0.00
  9                       1.00   0.66  0.19  0.00  0.15  0.00  0.00  0.00  0.04  0.00
  10                      1.00   0.00  0.29  0.00  0.70  0.00  0.00  0.00  0.38  0.00
  11                      1.00   0.00  0.00  0.00  0.43  0.57  0.00  0.00  0.06  0.00
  12                      1.00   0.00  0.00  0.00  0.44  0.55  0.00  0.00  0.75  0.00
  13                      1.00   0.00  0.39  0.00  0.60  0.00  0.00  0.00  0.50  0.00
  14                      1.00   0.00  0.00  0.00  0.99  0.00  0.00  0.00  0.71  0.00
  15                      1.00   0.00  0.00  0.00  0.99  0.00  0.00  0.00  0.99  0.00
  16                      1.00   0.00  0.00  0.00  0.98  0.01  0.00  0.00  0.89  0.00
  17                      1.00   0.00  0.74  0.00  0.25  0.00  0.00  0.00  0.99  0.00
  18                      1.00   0.00  0.00  0.00  0.99  0.00  0.00  0.00  0.88  0.00
  19                      1.00   0.00  0.00  0.00  0.99  0.00  0.00  0.00  0.99  0.00
  20                      1.00   0.00  0.03  0.00  0.97  0.00  0.00  0.00  0.99  0.00
  21                      1.00   0.00  0.00  0.00  0.69  0.30  0.00  0.00  0.99  0.00
  22                      1.00   0.00  0.00  0.00  0.99  0.01  0.00  0.00  0.99  0.00
  23                      1.00   0.00  0.00  0.00  0.99  0.00  0.00  0.00  0.99  0.00
  24                      1.00   0.00  0.01  0.00  0.51  0.48  0.00  0.00  0.98  0.00
  25                      1.00   0.00  0.00  0.00  0.99  0.00  0.00  0.00  0.99  0.00
  26                      1.00   0.00  0.99  0.00  0.00  0.00  0.00  0.00  0.00  0.00
  27                      1.00   0.00  0.00  0.00  0.99  0.00  0.00  0.00  0.97  0.00
  28                      1.00   0.00  0.00  0.00  0.99  0.00  0.00  0.00  0.82  0.00
  29                      1.00   0.00  0.99  0.00  0.00  0.00  0.00  0.00  0.00  0.00
  30                      1.00   0.00  0.00  0.00  0.99  0.00  0.00  0.00  0.00  0.00
  31                      1.00   0.00  0.00  0.00  0.99  0.00  0.00  0.00  0.44  0.00
  32                      1.00   0.00  0.00  0.00  0.99  0.00  0.00  0.00  0.00  0.00
  33                      1.00   0.00  0.00  0.00  0.99  0.00  0.00  0.00  0.00  0.00
  34                      1.00   0.00  0.00  0.00  0.99  0.00  0.00  0.00  0.64  0.00
  35                      1.00   0.00  0.00  0.00  0.99  0.00  0.00  0.00  0.84  0.00
  36                      1.00   0.00  0.00  0.00  0.99  0.00  0.00  0.00  0.00  0.00
  37                      1.00   0.00  0.00  0.00  0.99  0.00  0.00  0.00  0.96  0.00
  38                      1.00   0.00  0.00  0.00  0.99  0.00  0.00  0.00  0.00  0.00
  39                      1.00   0.00  0.01  0.00  0.98  0.00  0.00  0.00  0.05  0.00
  40                      1.00   0.00  0.09  0.00  0.90  0.00  0.00  0.00  0.28  0.00
  
  
  *************************
  Conduit Surcharge Summary
  *************************
  
  ----------------------------------------------------------------------------
                                                           Hours        Hours 
                         --------- Hours Full --------   Above Full   Capacity
  Conduit                Both Ends  Upstream  Dnstream   Normal Flow   Limited
  ----------------------------------------------------------------------------
  0                           0.01      0.01    968.88      0.01         0.01
  1                         388.96    389.02   3879.90      0.01         0.01
  2                         389.00    389.02   3879.94      0.74         0.34
  3                           0.51      0.54   2214.51      0.17         0.05
  4                        1249.88   1251.04   1251.17     50.06       508.50
  5                        1249.13   1251.17   1250.59    195.07       543.96
  6                        1248.29   1250.58   1250.76     95.42       536.15
  7                        1250.60   1250.61   1605.91      0.71         0.07
  8                        1250.77   1250.78   1599.59      1.06         0.24
  9                         390.30    390.44   3879.80      0.01         0.01
  10                       1429.82   1806.53   1729.41    439.83       107.44
  11                       1643.95   1652.65   1750.32    588.72       621.84
  12                       1750.27   1750.27   2060.01     11.22        22.55
  13                        353.80    353.80   1842.04      0.01         0.01
  14                       2059.96   2059.96   4099.43   1698.44      1706.69
  15                          0.01      0.01    304.36      0.01         0.01
  16                        304.81    304.81   1131.97      0.01         0.01
  17                          0.01      0.01    304.75      0.01         0.01
  18                        749.79    749.79   1652.62      0.29         0.01
  23                          0.01      0.01    588.98      0.01         0.01
  25                          0.01      0.01     19.58      0.01         0.01
  27                         79.38     79.38   1161.78      0.01         0.01
  28                       1161.78   1161.78   2616.29     17.56        18.58
  29                          1.93      1.93   1634.97      0.01         0.01
  30                       2595.04   4099.43   2595.04   6842.35      2595.02
  31                       4099.43   4099.43   7883.51   2181.15      2190.80
  32                       2593.29   2616.29   2595.27   5923.32       323.24
  33                        268.76   2616.29    268.76   5707.76       268.76
  34                       2595.30   2595.30   7849.05   1332.30      1356.74
  35                        268.80    268.80   7849.05      0.01         0.01
  36                       7848.97   7849.05   7849.00   6821.61      7107.71
  37                        268.81    268.81   7028.77    158.00       162.75
  38                          0.01      0.01   7883.36   1825.40         0.01
  39                          0.01      0.01   7726.10   3225.33         0.01
  40                          0.01      0.01   6946.14      0.01         0.01
  

  Analysis begun on:  Tue Apr 14 21:17:43 2020
  Analysis ended on:  Tue Apr 14 21:19:49 2020
  Total elapsed time: 00:02:06