
  EPA STORM WATER MANAGEMENT MODEL - VERSION 5.1 (Build 5.1.013)
  --------------------------------------------------------------

  Template input file for Gottesacker karst system.  
  Based on input files created by Zhao Chen. 
  Modified by Chloe Fandel: 
  
  WARNING 04: minimum elevation drop used for Conduit 1
  WARNING 04: minimum elevation drop used for Conduit 4
  WARNING 04: minimum elevation drop used for Conduit 5
  WARNING 04: minimum elevation drop used for Conduit 16
  WARNING 04: minimum elevation drop used for Conduit 17
  WARNING 04: minimum elevation drop used for Conduit 19
  WARNING 04: minimum elevation drop used for Conduit 20
  WARNING 04: minimum elevation drop used for Conduit 21
  WARNING 04: minimum elevation drop used for Conduit 22
  WARNING 04: minimum elevation drop used for Conduit 23
  WARNING 04: minimum elevation drop used for Conduit 24
  WARNING 04: minimum elevation drop used for Conduit 27
  WARNING 04: minimum elevation drop used for Conduit 30
  WARNING 04: minimum elevation drop used for Conduit 31
  WARNING 04: minimum elevation drop used for Conduit 32
  WARNING 04: minimum elevation drop used for Conduit 34
  WARNING 04: minimum elevation drop used for Conduit 36
  WARNING 04: minimum elevation drop used for Conduit 37
  WARNING 08: elevation drop exceeds length for Conduit 38
  WARNING 04: minimum elevation drop used for Conduit 39
  WARNING 04: minimum elevation drop used for Conduit 43
  WARNING 08: elevation drop exceeds length for Conduit 46
  WARNING 04: minimum elevation drop used for Conduit 47
  WARNING 04: minimum elevation drop used for Conduit 50
  WARNING 04: minimum elevation drop used for Conduit 51
  WARNING 08: elevation drop exceeds length for Conduit 52
  WARNING 04: minimum elevation drop used for Conduit 53
  WARNING 04: minimum elevation drop used for Conduit 54
  WARNING 08: elevation drop exceeds length for Conduit 55
  WARNING 04: minimum elevation drop used for Conduit 57
  WARNING 08: elevation drop exceeds length for Conduit 60
  WARNING 04: minimum elevation drop used for Conduit 61
  WARNING 04: minimum elevation drop used for Conduit 62
  WARNING 04: minimum elevation drop used for Conduit 63
  WARNING 04: minimum elevation drop used for Conduit 64
  WARNING 04: minimum elevation drop used for Conduit 65
  WARNING 04: minimum elevation drop used for Conduit 66
  WARNING 04: minimum elevation drop used for Conduit 67
  WARNING 04: minimum elevation drop used for Conduit 68
  WARNING 04: minimum elevation drop used for Conduit 69
  WARNING 08: elevation drop exceeds length for Conduit 70
  WARNING 04: minimum elevation drop used for Conduit 72
  WARNING 04: minimum elevation drop used for Conduit 73
  WARNING 08: elevation drop exceeds length for Conduit 75
  WARNING 04: minimum elevation drop used for Conduit 76
  WARNING 04: minimum elevation drop used for Conduit 77
  WARNING 08: elevation drop exceeds length for Conduit 80
  WARNING 04: minimum elevation drop used for Conduit 82
  WARNING 04: minimum elevation drop used for Conduit 83
  WARNING 08: elevation drop exceeds length for Conduit 87
  WARNING 04: minimum elevation drop used for Conduit 88
  WARNING 04: minimum elevation drop used for Conduit 89
  WARNING 04: minimum elevation drop used for Conduit 90
  WARNING 04: minimum elevation drop used for Conduit 91
  WARNING 04: minimum elevation drop used for Conduit 92
  WARNING 04: minimum elevation drop used for Conduit 93
  WARNING 04: minimum elevation drop used for Conduit 94
  WARNING 04: minimum elevation drop used for Conduit 95
  WARNING 04: minimum elevation drop used for Conduit 96
  WARNING 08: elevation drop exceeds length for Conduit 97
  WARNING 04: minimum elevation drop used for Conduit 98
  WARNING 08: elevation drop exceeds length for Conduit 99
  WARNING 04: minimum elevation drop used for Conduit 100
  WARNING 04: minimum elevation drop used for Conduit 101
  WARNING 04: minimum elevation drop used for Conduit 102
  WARNING 04: minimum elevation drop used for Conduit 103
  WARNING 04: minimum elevation drop used for Conduit 104
  WARNING 04: minimum elevation drop used for Conduit 105
  WARNING 04: minimum elevation drop used for Conduit 106
  WARNING 04: minimum elevation drop used for Conduit 107
  WARNING 04: minimum elevation drop used for Conduit 108
  WARNING 08: elevation drop exceeds length for Conduit 109
  WARNING 04: minimum elevation drop used for Conduit 110
  WARNING 04: minimum elevation drop used for Conduit 111
  WARNING 08: elevation drop exceeds length for Conduit 112
  WARNING 04: minimum elevation drop used for Conduit 116
  WARNING 04: minimum elevation drop used for Conduit 117
  WARNING 04: minimum elevation drop used for Conduit 118
  WARNING 04: minimum elevation drop used for Conduit 119
  WARNING 08: elevation drop exceeds length for Conduit 120
  WARNING 04: minimum elevation drop used for Conduit 121
  WARNING 04: minimum elevation drop used for Conduit 122
  WARNING 04: minimum elevation drop used for Conduit 123
  WARNING 08: elevation drop exceeds length for Conduit 124
  WARNING 04: minimum elevation drop used for Conduit 126
  WARNING 08: elevation drop exceeds length for Conduit 127
  WARNING 04: minimum elevation drop used for Conduit 129
  WARNING 04: minimum elevation drop used for Conduit 130
  WARNING 08: elevation drop exceeds length for Conduit 131
  WARNING 04: minimum elevation drop used for Conduit 132
  WARNING 04: minimum elevation drop used for Conduit 133
  WARNING 08: elevation drop exceeds length for Conduit 134
  WARNING 04: minimum elevation drop used for Conduit 135
  WARNING 04: minimum elevation drop used for Conduit 137
  WARNING 08: elevation drop exceeds length for Conduit 138
  WARNING 04: minimum elevation drop used for Conduit 139
  WARNING 04: minimum elevation drop used for Conduit 143
  WARNING 04: minimum elevation drop used for Conduit 144
  WARNING 04: minimum elevation drop used for Conduit 145
  WARNING 04: minimum elevation drop used for Conduit 146
  WARNING 08: elevation drop exceeds length for Conduit 147
  WARNING 04: minimum elevation drop used for Conduit 148
  WARNING 04: minimum elevation drop used for Conduit 149
  WARNING 04: minimum elevation drop used for Conduit 151
  WARNING 04: minimum elevation drop used for Conduit 153
  WARNING 04: minimum elevation drop used for Conduit 155
  WARNING 08: elevation drop exceeds length for Conduit 156
  WARNING 04: minimum elevation drop used for Conduit 157
  WARNING 04: minimum elevation drop used for Conduit 158
  WARNING 04: minimum elevation drop used for Conduit 160
  WARNING 04: minimum elevation drop used for Conduit 163
  WARNING 04: minimum elevation drop used for Conduit 165
  WARNING 04: minimum elevation drop used for Conduit 166
  WARNING 08: elevation drop exceeds length for Conduit 167
  WARNING 08: elevation drop exceeds length for Conduit 169
  WARNING 04: minimum elevation drop used for Conduit 170
  WARNING 04: minimum elevation drop used for Conduit 171
  WARNING 08: elevation drop exceeds length for Conduit 172
  WARNING 04: minimum elevation drop used for Conduit 174
  WARNING 04: minimum elevation drop used for Conduit 176
  WARNING 04: minimum elevation drop used for Conduit 178
  WARNING 04: minimum elevation drop used for Conduit 179
  WARNING 04: minimum elevation drop used for Conduit 181
  WARNING 04: minimum elevation drop used for Conduit 182
  WARNING 04: minimum elevation drop used for Conduit 184
  WARNING 04: minimum elevation drop used for Conduit 186
  WARNING 04: minimum elevation drop used for Conduit 192
  WARNING 04: minimum elevation drop used for Conduit 194
  WARNING 04: minimum elevation drop used for Conduit 197
  WARNING 04: minimum elevation drop used for Conduit 198
  WARNING 04: minimum elevation drop used for Conduit 199
  WARNING 04: minimum elevation drop used for Conduit 200
  WARNING 04: minimum elevation drop used for Conduit 201
  WARNING 04: minimum elevation drop used for Conduit 202
  WARNING 04: minimum elevation drop used for Conduit 203
  WARNING 04: minimum elevation drop used for Conduit 204
  WARNING 08: elevation drop exceeds length for Conduit 205
  WARNING 04: minimum elevation drop used for Conduit 206
  WARNING 04: minimum elevation drop used for Conduit 207
  WARNING 04: minimum elevation drop used for Conduit 208
  WARNING 04: minimum elevation drop used for Conduit 209
  WARNING 08: elevation drop exceeds length for Conduit 212
  WARNING 04: minimum elevation drop used for Conduit 213
  WARNING 04: minimum elevation drop used for Conduit 219
  WARNING 04: minimum elevation drop used for Conduit 220
  WARNING 04: minimum elevation drop used for Conduit 223
  WARNING 04: minimum elevation drop used for Conduit 224
  WARNING 04: minimum elevation drop used for Conduit 225
  WARNING 04: minimum elevation drop used for Conduit 226
  WARNING 04: minimum elevation drop used for Conduit 227
  WARNING 04: minimum elevation drop used for Conduit 228
  WARNING 04: minimum elevation drop used for Conduit 229
  WARNING 04: minimum elevation drop used for Conduit 231
  WARNING 04: minimum elevation drop used for Conduit 234
  WARNING 04: minimum elevation drop used for Conduit 237
  WARNING 04: minimum elevation drop used for Conduit 240
  WARNING 04: minimum elevation drop used for Conduit 241
  WARNING 04: minimum elevation drop used for Conduit 242
  WARNING 04: minimum elevation drop used for Conduit 243
  WARNING 04: minimum elevation drop used for Conduit 244
  WARNING 04: minimum elevation drop used for Conduit 247
  WARNING 04: minimum elevation drop used for Conduit 249
  WARNING 08: elevation drop exceeds length for Conduit 250
  WARNING 04: minimum elevation drop used for Conduit 251
  WARNING 04: minimum elevation drop used for Conduit 253
  WARNING 08: elevation drop exceeds length for Conduit 254
  WARNING 04: minimum elevation drop used for Conduit 256
  WARNING 04: minimum elevation drop used for Conduit 257
  WARNING 04: minimum elevation drop used for Conduit 258
  WARNING 04: minimum elevation drop used for Conduit 259
  WARNING 04: minimum elevation drop used for Conduit 260
  WARNING 04: minimum elevation drop used for Conduit 261
  WARNING 04: minimum elevation drop used for Conduit 262
  WARNING 04: minimum elevation drop used for Conduit 263
  WARNING 04: minimum elevation drop used for Conduit 264
  WARNING 04: minimum elevation drop used for Conduit 266
  WARNING 04: minimum elevation drop used for Conduit 267
  WARNING 04: minimum elevation drop used for Conduit 268
  WARNING 04: minimum elevation drop used for Conduit 269
  WARNING 04: minimum elevation drop used for Conduit 270
  WARNING 04: minimum elevation drop used for Conduit 271
  WARNING 04: minimum elevation drop used for Conduit 273
  WARNING 04: minimum elevation drop used for Conduit 275
  WARNING 04: minimum elevation drop used for Conduit 277
  WARNING 04: minimum elevation drop used for Conduit 279
  WARNING 04: minimum elevation drop used for Conduit 280
  WARNING 04: minimum elevation drop used for Conduit 281
  WARNING 04: minimum elevation drop used for Conduit 282
  WARNING 04: minimum elevation drop used for Conduit 284
  WARNING 04: minimum elevation drop used for Conduit 285
  WARNING 04: minimum elevation drop used for Conduit 286
  WARNING 04: minimum elevation drop used for Conduit 287
  WARNING 04: minimum elevation drop used for Conduit 288
  WARNING 04: minimum elevation drop used for Conduit 289
  WARNING 04: minimum elevation drop used for Conduit 290
  WARNING 04: minimum elevation drop used for Conduit 295
  WARNING 04: minimum elevation drop used for Conduit 297
  WARNING 04: minimum elevation drop used for Conduit 298
  WARNING 04: minimum elevation drop used for Conduit 299
  WARNING 04: minimum elevation drop used for Conduit 300
  WARNING 04: minimum elevation drop used for Conduit 301
  WARNING 04: minimum elevation drop used for Conduit 302
  WARNING 08: elevation drop exceeds length for Conduit 303
  WARNING 04: minimum elevation drop used for Conduit 304
  WARNING 04: minimum elevation drop used for Conduit 308
  WARNING 04: minimum elevation drop used for Conduit 309
  WARNING 04: minimum elevation drop used for Conduit 310
  WARNING 04: minimum elevation drop used for Conduit 311
  WARNING 04: minimum elevation drop used for Conduit 312
  WARNING 04: minimum elevation drop used for Conduit 317
  WARNING 04: minimum elevation drop used for Conduit 318
  WARNING 04: minimum elevation drop used for Conduit 319
  WARNING 04: minimum elevation drop used for Conduit 322
  WARNING 04: minimum elevation drop used for Conduit 324
  WARNING 04: minimum elevation drop used for Conduit 325
  WARNING 04: minimum elevation drop used for Conduit 326
  WARNING 04: minimum elevation drop used for Conduit 330
  WARNING 04: minimum elevation drop used for Conduit 337
  WARNING 08: elevation drop exceeds length for Conduit 338
  WARNING 04: minimum elevation drop used for Conduit 339
  WARNING 04: minimum elevation drop used for Conduit 341
  WARNING 04: minimum elevation drop used for Conduit 345
  WARNING 04: minimum elevation drop used for Conduit 346
  WARNING 04: minimum elevation drop used for Conduit 347
  WARNING 04: minimum elevation drop used for Conduit 348
  WARNING 04: minimum elevation drop used for Conduit 349
  WARNING 04: minimum elevation drop used for Conduit 350
  WARNING 04: minimum elevation drop used for Conduit 351
  WARNING 04: minimum elevation drop used for Conduit 352
  WARNING 04: minimum elevation drop used for Conduit 354
  WARNING 04: minimum elevation drop used for Conduit 355
  WARNING 04: minimum elevation drop used for Conduit 357
  WARNING 04: minimum elevation drop used for Conduit 358
  WARNING 04: minimum elevation drop used for Conduit 359
  WARNING 04: minimum elevation drop used for Conduit 366
  
  *********************************************************
  NOTE: The summary statistics displayed in this report are
  based on results found at every computational time step,  
  not just on results from each reporting time step.
  *********************************************************
  
  ****************
  Analysis Options
  ****************
  Flow Units ............... LPS
  Process Models:
    Rainfall/Runoff ........ YES
    RDII ................... NO
    Snowmelt ............... NO
    Groundwater ............ NO
    Flow Routing ........... YES
    Ponding Allowed ........ NO
    Water Quality .......... NO
  Infiltration Method ...... HORTON
  Flow Routing Method ...... DYNWAVE
  Surcharge Method ......... EXTRAN
  Starting Date ............ 11/14/2013 00:00:00
  Ending Date .............. 10/11/2014 00:00:00
  Antecedent Dry Days ...... 0.0
  Report Time Step ......... 01:00:00
  Wet Time Step ............ 00:30:00
  Dry Time Step ............ 01:00:00
  Routing Time Step ........ 30.00 sec
  Variable Time Step ....... YES
  Maximum Trials ........... 8
  Number of Threads ........ 4
  Head Tolerance ........... 0.001524 m
  
  
  **************************        Volume         Depth
  Runoff Quantity Continuity     hectare-m            mm
  **************************     ---------       -------
  Total Precipitation ......      2343.488       713.065
  Evaporation Loss .........         0.000         0.000
  Infiltration Loss ........         0.000         0.000
  Surface Runoff ...........      2343.606       713.101
  Final Storage ............         0.875         0.266
  Continuity Error (%) .....        -0.042
  
  
  **************************        Volume        Volume
  Flow Routing Continuity        hectare-m      10^6 ltr
  **************************     ---------     ---------
  Dry Weather Inflow .......         0.000         0.000
  Wet Weather Inflow .......      2343.568     23435.927
  Groundwater Inflow .......         0.000         0.000
  RDII Inflow ..............         0.000         0.000
  External Inflow ..........         5.627        56.273
  External Outflow .........      2903.577     29036.071
  Flooding Loss ............        18.001       180.013
  Evaporation Loss .........         0.000         0.000
  Exfiltration Loss ........         0.000         0.000
  Initial Stored Volume ....         0.000         0.001
  Final Stored Volume ......         5.272        52.724
  Continuity Error (%) .....       -24.589
  
  
  *************************
  Highest Continuity Errors
  *************************
  Node 20 (-812.36%)
  Node 187 (-795.40%)
  Node 98 (-356.24%)
  Node 19 (14.90%)
  Node 186 (13.76%)
  
  
  ***************************
  Time-Step Critical Elements
  ***************************
  Link 210 (96.21%)
  Link 236 (2.87%)
  
  
  ********************************
  Highest Flow Instability Indexes
  ********************************
  Link 26 (147)
  Link 43 (147)
  Link 18 (147)
  Link 149 (146)
  Link 282 (144)
  
  
  *************************
  Routing Time Step Summary
  *************************
  Minimum Time Step           :     0.50 sec
  Average Time Step           :     9.09 sec
  Maximum Time Step           :    30.00 sec
  Percent in Steady State     :     0.30
  Average Iterations per Step :     7.29
  Percent Not Converging      :    77.82
  
  
  ***************************
  Subcatchment Runoff Summary
  ***************************
  
  ------------------------------------------------------------------------------------------------------------------------------
                            Total      Total      Total      Total     Imperv       Perv      Total       Total     Peak  Runoff
                           Precip      Runon       Evap      Infil     Runoff     Runoff     Runoff      Runoff   Runoff   Coeff
  Subcatchment                 mm         mm         mm         mm         mm         mm         mm    10^6 ltr      LPS
  ------------------------------------------------------------------------------------------------------------------------------
  S1                         0.00       0.00       0.00       0.00       0.00       0.00       0.00        0.00     0.00   0.000
  S2                         0.00       0.00       0.00       0.00       0.00       0.00       0.00        0.00     0.00   0.000
  S3                         0.00       0.00       0.00       0.00       0.00       0.00       0.00        0.00     0.00   0.000
  S4                         0.00       0.00       0.00       0.00       0.00       0.00       0.00        0.00     0.00   0.000
  S5                      1061.54       0.00       0.00       0.00    1061.69       0.00    1061.69      368.94   262.37   1.000
  S6                      1053.22       0.00       0.00       0.00    1053.55       0.00    1053.55      208.08   159.86   1.000
  S7                         0.00       0.00       0.00       0.00       0.00       0.00       0.00        0.00     0.00   0.000
  S8                       216.07       0.00       0.00       0.00     215.42       0.00     215.42      966.17   326.33   0.997
  S9                      1015.28       0.00       0.00       0.00    1015.29       0.00    1015.29      487.34   328.42   1.000
  S10                        0.00       0.00       0.00       0.00       0.00       0.00       0.00        0.00     0.00   0.000
  S11                     1008.24       0.00       0.00       0.00    1008.64       0.00    1008.64      136.17   111.29   1.000
  S12                     1025.22       0.00       0.00       0.00    1025.31       0.00    1025.31      371.68   262.35   1.000
  S13                     1385.10       0.00       0.00       0.00    1385.52       0.00    1385.52      498.79   466.98   1.000
  S14                      618.94       0.00       0.00       0.00     618.53       0.00     618.53      853.57   419.88   0.999
  S15                     1125.81       0.00       0.00       0.00    1125.72       0.00    1125.72      790.82   518.11   1.000
  S16                      668.19       0.00       0.00       0.00     668.21       0.00     668.21      190.44   131.32   1.000
  S17                     1563.56       0.00       0.00       0.00    1564.70       0.00    1564.70      148.65   135.75   1.001
  S18                     1033.18       0.00       0.00       0.00    1033.25       0.00    1033.25      322.89   232.04   1.000
  S19                     1020.98       0.00       0.00       0.00    1021.25       0.00    1021.25      194.04   151.11   1.000
  S20                     1003.45       0.00       0.00       0.00    1004.15       0.00    1004.15       60.25    53.05   1.001
  S22                     1036.22       0.00       0.00       0.00    1036.14       0.00    1036.14      841.87   614.86   1.000
  S25                        0.00       0.00       0.00       0.00       0.00       0.00       0.00        0.00     0.00   0.000
  S26                        0.00       0.00       0.00       0.00       0.00       0.00       0.00        0.00     0.00   0.000
  S27                     1577.49       0.00       0.00       0.00    1578.43       0.00    1578.43      209.14   181.93   1.001
  S28                     1605.11       0.00       0.00       0.00    1605.82       0.00    1605.82      321.17   267.68   1.000
  S29                     1002.11       0.00       0.00       0.00    1002.34       0.00    1002.34      218.01   164.26   1.000
  S30                        0.00       0.00       0.00       0.00       0.00       0.00       0.00        0.00     0.00   0.000
  S31                        0.00       0.00       0.00       0.00       0.00       0.00       0.00        0.00     0.00   0.000
  S32                     1103.74       0.00       0.00       0.00    1103.95       0.00    1103.95      314.63   241.36   1.000
  S33                        0.00       0.00       0.00       0.00       0.00       0.00       0.00        0.00     0.00   0.000
  S34                        0.00       0.00       0.00       0.00       0.00       0.00       0.00        0.00     0.00   0.000
  S35                     1491.27       0.00       0.00       0.00    1494.19       0.00    1494.19       18.68    37.93   1.002
  S36                     1360.47       0.00       0.00       0.00    1360.96       0.00    1360.96      299.41   247.73   1.000
  S37                     1618.01       0.00       0.00       0.00    1619.68       0.00    1619.68       72.89    69.01   1.001
  S38                     1533.04       0.00       0.00       0.00    1533.29       0.00    1533.29      858.65   654.39   1.000
  S39                      951.72       0.00       0.00       0.00     952.92       0.00     952.92       19.06    28.41   1.001
  S40                      945.64       0.00       0.00       0.00     946.59       0.00     946.59       30.76    37.19   1.001
  S41                     1487.62       0.00       0.00       0.00    1489.16       0.00    1489.16       85.63   127.32   1.001
  S42                     1569.01       0.00       0.00       0.00    1570.32       0.00    1570.32      113.85   106.11   1.001
  S43                        0.00       0.00       0.00       0.00       0.00       0.00       0.00        0.00     0.00   0.000
  S44                      950.09       0.00       0.00       0.00     951.01       0.00     951.01       33.29    41.86   1.001
  S45                        0.00       0.00       0.00       0.00       0.00       0.00       0.00        0.00     0.00   0.000
  S46                        0.00       0.00       0.00       0.00       0.00       0.00       0.00        0.00     0.00   0.000
  S47                     1552.78       0.00       0.00       0.00    1554.75       0.00    1554.75       54.42    81.23   1.001
  S48                     1150.07       0.00       0.00       0.00    1149.95       0.00    1149.95     1129.83   806.26   1.000
  S49                      399.10       0.00       0.00       0.00     399.20       0.00     399.20       27.94    21.08   1.000
  S52                     1517.43       0.00       0.00       0.00    1517.72       0.00    1517.72      774.04   613.88   1.000
  S53                     1468.95       0.00       0.00       0.00    1470.81       0.00    1470.81       51.48    71.41   1.001
  S56                     1473.00       0.00       0.00       0.00    1474.40       0.00    1474.40       99.52   136.46   1.001
  S57                        0.00       0.00       0.00       0.00       0.00       0.00       0.00        0.00     0.00   0.000
  S58                        0.00       0.00       0.00       0.00       0.00       0.00       0.00        0.00     0.00   0.000
  S59                        0.00       0.00       0.00       0.00       0.00       0.00       0.00        0.00     0.00   0.000
  S60                     1504.70       0.00       0.00       0.00    1506.45       0.00    1506.45       75.32   138.91   1.001
  S61                        0.00       0.00       0.00       0.00       0.00       0.00       0.00        0.00     0.00   0.000
  S62                      939.58       0.00       0.00       0.00     940.44       0.00     940.44       37.62    41.22   1.001
  S63                        0.00       0.00       0.00       0.00       0.00       0.00       0.00        0.00     0.00   0.000
  S64                     1484.89       0.00       0.00       0.00    1486.70       0.00    1486.70       74.34   156.77   1.001
  S65                        0.00       0.00       0.00       0.00       0.00       0.00       0.00        0.00     0.00   0.000
  S66                        0.00       0.00       0.00       0.00       0.00       0.00       0.00        0.00     0.00   0.000
  S67                     1485.51       0.00       0.00       0.00    1486.30       0.00    1486.30      282.40   314.29   1.001
  S68                      965.66       0.00       0.00       0.00     966.73       0.00     966.73       26.59    41.15   1.001
  S69                        0.00       0.00       0.00       0.00       0.00       0.00       0.00        0.00     0.00   0.000
  S71                        0.00       0.00       0.00       0.00       0.00       0.00       0.00        0.00     0.00   0.000
  S72                     1474.54       0.00       0.00       0.00    1476.95       0.00    1476.95       36.92    88.50   1.002
  S73                        0.00       0.00       0.00       0.00       0.00       0.00       0.00        0.00     0.00   0.000
  S74                        0.00       0.00       0.00       0.00       0.00       0.00       0.00        0.00     0.00   0.000
  S75                      942.01       0.00       0.00       0.00     942.06       0.00     942.06      435.71   351.02   1.000
  S76                        0.00       0.00       0.00       0.00       0.00       0.00       0.00        0.00     0.00   0.000
  S77                     1455.19       0.00       0.00       0.00    1455.74       0.00    1455.74      444.00   473.84   1.000
  S78                        0.00       0.00       0.00       0.00       0.00       0.00       0.00        0.00     0.00   0.000
  S79                     1463.87       0.00       0.00       0.00    1465.07       0.00    1465.07      135.52   170.59   1.001
  S80                        0.00       0.00       0.00       0.00       0.00       0.00       0.00        0.00     0.00   0.000
  S81                     1241.24       0.00       0.00       0.00    1241.14       0.00    1241.14     1194.60   911.30   1.000
  S82                      922.29       0.00       0.00       0.00     922.77       0.00     922.77      103.81    92.49   1.001
  S83                        0.00       0.00       0.00       0.00       0.00       0.00       0.00        0.00     0.00   0.000
  S84                        0.00       0.00       0.00       0.00       0.00       0.00       0.00        0.00     0.00   0.000
  S85                        0.00       0.00       0.00       0.00       0.00       0.00       0.00        0.00     0.00   0.000
  S86                        0.00       0.00       0.00       0.00       0.00       0.00       0.00        0.00     0.00   0.000
  S92                        0.00       0.00       0.00       0.00       0.00       0.00       0.00        0.00     0.00   0.000
  S95                        0.00       0.00       0.00       0.00       0.00       0.00       0.00        0.00     0.00   0.000
  S96                        0.00       0.00       0.00       0.00       0.00       0.00       0.00        0.00     0.00   0.000
  S97                        0.00       0.00       0.00       0.00       0.00       0.00       0.00        0.00     0.00   0.000
  S99                      921.14       0.00       0.00       0.00     921.83       0.00     921.83       55.31    52.93   1.001
  S100                       0.00       0.00       0.00       0.00       0.00       0.00       0.00        0.00     0.00   0.000
  S101                    1586.10       0.00       0.00       0.00    1587.15       0.00    1587.15      198.39   191.87   1.001
  S102                    1436.94       0.00       0.00       0.00    1438.07       0.00    1438.07      143.81   153.40   1.001
  S103                       0.00       0.00       0.00       0.00       0.00       0.00       0.00        0.00     0.00   0.000
  S104                       0.00       0.00       0.00       0.00       0.00       0.00       0.00        0.00     0.00   0.000
  S105                     913.91       0.00       0.00       0.00     915.03       0.00     915.03       20.59    23.34   1.001
  S106                       0.00       0.00       0.00       0.00       0.00       0.00       0.00        0.00     0.00   0.000
  S107                    1465.45       0.00       0.00       0.00    1466.49       0.00    1466.49      179.65   219.28   1.001
  S108                       0.00       0.00       0.00       0.00       0.00       0.00       0.00        0.00     0.00   0.000
  S109                     929.29       0.00       0.00       0.00     929.88       0.00     929.88       74.39    70.65   1.001
  S110                       0.00       0.00       0.00       0.00       0.00       0.00       0.00        0.00     0.00   0.000
  S111                       0.00       0.00       0.00       0.00       0.00       0.00       0.00        0.00     0.00   0.000
  S112                     691.74       0.00       0.00       0.00     691.70       0.00     691.70      307.81   284.34   1.000
  S113                       0.00       0.00       0.00       0.00       0.00       0.00       0.00        0.00     0.00   0.000
  S114                       0.00       0.00       0.00       0.00       0.00       0.00       0.00        0.00     0.00   0.000
  S115                       0.00       0.00       0.00       0.00       0.00       0.00       0.00        0.00     0.00   0.000
  S117                       0.00       0.00       0.00       0.00       0.00       0.00       0.00        0.00     0.00   0.000
  S118                       0.00       0.00       0.00       0.00       0.00       0.00       0.00        0.00     0.00   0.000
  S119                    1437.64       0.00       0.00       0.00    1439.56       0.00    1439.56       46.79    62.72   1.001
  S120                    1450.27       0.00       0.00       0.00    1451.47       0.00    1451.47      127.00   130.09   1.001
  S121                     997.28       0.00       0.00       0.00     997.50       0.00     997.50      294.26   259.37   1.000
  S122                       0.00       0.00       0.00       0.00       0.00       0.00       0.00        0.00     0.00   0.000
  S123                       0.00       0.00       0.00       0.00       0.00       0.00       0.00        0.00     0.00   0.000
  S124                       0.00       0.00       0.00       0.00       0.00       0.00       0.00        0.00     0.00   0.000
  S125                       0.00       0.00       0.00       0.00       0.00       0.00       0.00        0.00     0.00   0.000
  S126                       0.00       0.00       0.00       0.00       0.00       0.00       0.00        0.00     0.00   0.000
  S127                    1470.47       0.00       0.00       0.00    1472.21       0.00    1472.21       66.25   115.80   1.001
  S128                       0.00       0.00       0.00       0.00       0.00       0.00       0.00        0.00     0.00   0.000
  S129                       0.00       0.00       0.00       0.00       0.00       0.00       0.00        0.00     0.00   0.000
  S130                       0.00       0.00       0.00       0.00       0.00       0.00       0.00        0.00     0.00   0.000
  S131                    1272.83       0.00       0.00       0.00    1272.46       0.00    1272.46     2198.18  1276.91   1.000
  S132                    1428.17       0.00       0.00       0.00    1430.30       0.00    1430.30       35.76    43.33   1.001
  S133                     910.45       0.00       0.00       0.00     911.03       0.00     911.03       75.16    71.35   1.001
  S134                     906.76       0.00       0.00       0.00     907.73       0.00     907.73       27.23    28.56   1.001
  S135                       0.00       0.00       0.00       0.00       0.00       0.00       0.00        0.00     0.00   0.000
  S136                       0.00       0.00       0.00       0.00       0.00       0.00       0.00        0.00     0.00   0.000
  S137                    1430.27       0.00       0.00       0.00    1430.76       0.00    1430.76      468.58   406.90   1.000
  S138                       0.00       0.00       0.00       0.00       0.00       0.00       0.00        0.00     0.00   0.000
  S139                       0.00       0.00       0.00       0.00       0.00       0.00       0.00        0.00     0.00   0.000
  S140                       0.00       0.00       0.00       0.00       0.00       0.00       0.00        0.00     0.00   0.000
  S141                       0.00       0.00       0.00       0.00       0.00       0.00       0.00        0.00     0.00   0.000
  S142                       0.00       0.00       0.00       0.00       0.00       0.00       0.00        0.00     0.00   0.000
  S143                       0.00       0.00       0.00       0.00       0.00       0.00       0.00        0.00     0.00   0.000
  S144                       0.00       0.00       0.00       0.00       0.00       0.00       0.00        0.00     0.00   0.000
  S145                    1502.98       0.00       0.00       0.00    1504.24       0.00    1504.24      135.38   180.32   1.001
  S146                       0.00       0.00       0.00       0.00       0.00       0.00       0.00        0.00     0.00   0.000
  S147                     202.41       0.00       0.00       0.00     202.33       0.00     202.33       41.98    27.16   1.000
  S148                       0.00       0.00       0.00       0.00       0.00       0.00       0.00        0.00     0.00   0.000
  S149                       0.00       0.00       0.00       0.00       0.00       0.00       0.00        0.00     0.00   0.000
  S150                       0.00       0.00       0.00       0.00       0.00       0.00       0.00        0.00     0.00   0.000
  S151                       0.00       0.00       0.00       0.00       0.00       0.00       0.00        0.00     0.00   0.000
  S152                       0.00       0.00       0.00       0.00       0.00       0.00       0.00        0.00     0.00   0.000
  S153                       0.00       0.00       0.00       0.00       0.00       0.00       0.00        0.00     0.00   0.000
  S154                     909.54       0.00       0.00       0.00     910.01       0.00     910.01      100.10    91.85   1.001
  S155                       0.00       0.00       0.00       0.00       0.00       0.00       0.00        0.00     0.00   0.000
  S156                       0.00       0.00       0.00       0.00       0.00       0.00       0.00        0.00     0.00   0.000
  S157                       0.00       0.00       0.00       0.00       0.00       0.00       0.00        0.00     0.00   0.000
  S158                       0.00       0.00       0.00       0.00       0.00       0.00       0.00        0.00     0.00   0.000
  S159                    1458.54       0.00       0.00       0.00    1459.66       0.00    1459.66      149.62   175.60   1.001
  S160                       0.00       0.00       0.00       0.00       0.00       0.00       0.00        0.00     0.00   0.000
  S161                       0.00       0.00       0.00       0.00       0.00       0.00       0.00        0.00     0.00   0.000
  S162                       0.00       0.00       0.00       0.00       0.00       0.00       0.00        0.00     0.00   0.000
  S163                    1275.49       0.00       0.00       0.00    1276.37       0.00    1276.37      143.59   137.99   1.001
  S164                       0.00       0.00       0.00       0.00       0.00       0.00       0.00        0.00     0.00   0.000
  S165                    1417.47       0.00       0.00       0.00    1418.39       0.00    1418.39      198.58   188.35   1.001
  S166                    1456.65       0.00       0.00       0.00    1457.85       0.00    1457.85      127.56   150.90   1.001
  S167                       0.00       0.00       0.00       0.00       0.00       0.00       0.00        0.00     0.00   0.000
  S168                       0.00       0.00       0.00       0.00       0.00       0.00       0.00        0.00     0.00   0.000
  S169                    1440.34       0.00       0.00       0.00    1442.07       0.00    1442.07       57.68    73.87   1.001
  S170                       0.00       0.00       0.00       0.00       0.00       0.00       0.00        0.00     0.00   0.000
  S171                       0.00       0.00       0.00       0.00       0.00       0.00       0.00        0.00     0.00   0.000
  S173                       0.00       0.00       0.00       0.00       0.00       0.00       0.00        0.00     0.00   0.000
  S174                       0.00       0.00       0.00       0.00       0.00       0.00       0.00        0.00     0.00   0.000
  S175                     921.04       0.00       0.00       0.00     921.43       0.00     921.43      135.91   118.21   1.000
  S177                       0.00       0.00       0.00       0.00       0.00       0.00       0.00        0.00     0.00   0.000
  S181                       0.00       0.00       0.00       0.00       0.00       0.00       0.00        0.00     0.00   0.000
  S182                       0.00       0.00       0.00       0.00       0.00       0.00       0.00        0.00     0.00   0.000
  S183                       0.00       0.00       0.00       0.00       0.00       0.00       0.00        0.00     0.00   0.000
  S184                       0.00       0.00       0.00       0.00       0.00       0.00       0.00        0.00     0.00   0.000
  S185                    1413.15       0.00       0.00       0.00    1412.97       0.00    1412.97     1971.10  1311.86   1.000
  S186                       0.00       0.00       0.00       0.00       0.00       0.00       0.00        0.00     0.00   0.000
  S187                    1445.01       0.00       0.00       0.00    1445.91       0.00    1445.91      213.27   222.36   1.001
  S189                       0.00       0.00       0.00       0.00       0.00       0.00       0.00        0.00     0.00   0.000
  S190                       0.00       0.00       0.00       0.00       0.00       0.00       0.00        0.00     0.00   0.000
  S191                       0.00       0.00       0.00       0.00       0.00       0.00       0.00        0.00     0.00   0.000
  S193                    1402.44       0.00       0.00       0.00    1403.28       0.00    1403.28      231.54   222.67   1.001
  S194                       0.00       0.00       0.00       0.00       0.00       0.00       0.00        0.00     0.00   0.000
  S197                       0.00       0.00       0.00       0.00       0.00       0.00       0.00        0.00     0.00   0.000
  S198                       0.00       0.00       0.00       0.00       0.00       0.00       0.00        0.00     0.00   0.000
  S199                    1393.03       0.00       0.00       0.00    1394.60       0.00    1394.60       69.73    75.98   1.001
  S200                       0.00       0.00       0.00       0.00       0.00       0.00       0.00        0.00     0.00   0.000
  S201                       0.00       0.00       0.00       0.00       0.00       0.00       0.00        0.00     0.00   0.000
  S202                       0.00       0.00       0.00       0.00       0.00       0.00       0.00        0.00     0.00   0.000
  S203                       0.00       0.00       0.00       0.00       0.00       0.00       0.00        0.00     0.00   0.000
  S204                       0.00       0.00       0.00       0.00       0.00       0.00       0.00        0.00     0.00   0.000
  S205                       0.00       0.00       0.00       0.00       0.00       0.00       0.00        0.00     0.00   0.000
  S206                       0.00       0.00       0.00       0.00       0.00       0.00       0.00        0.00     0.00   0.000
  S207                       0.00       0.00       0.00       0.00       0.00       0.00       0.00        0.00     0.00   0.000
  S208                       0.00       0.00       0.00       0.00       0.00       0.00       0.00        0.00     0.00   0.000
  S210                       0.00       0.00       0.00       0.00       0.00       0.00       0.00        0.00     0.00   0.000
  S211                       0.00       0.00       0.00       0.00       0.00       0.00       0.00        0.00     0.00   0.000
  S212                       0.00       0.00       0.00       0.00       0.00       0.00       0.00        0.00     0.00   0.000
  S213                    1377.53       0.00       0.00       0.00    1379.22       0.00    1379.22       58.62    66.27   1.001
  S214                       0.00       0.00       0.00       0.00       0.00       0.00       0.00        0.00     0.00   0.000
  S215                       0.00       0.00       0.00       0.00       0.00       0.00       0.00        0.00     0.00   0.000
  S216                       0.00       0.00       0.00       0.00       0.00       0.00       0.00        0.00     0.00   0.000
  S217                       0.00       0.00       0.00       0.00       0.00       0.00       0.00        0.00     0.00   0.000
  S218                       0.00       0.00       0.00       0.00       0.00       0.00       0.00        0.00     0.00   0.000
  S221                       0.00       0.00       0.00       0.00       0.00       0.00       0.00        0.00     0.00   0.000
  S222                    1286.14       0.00       0.00       0.00    1286.36       0.00    1286.36      668.91   532.59   1.000
  S223                    1391.62       0.00       0.00       0.00    1393.22       0.00    1393.22       66.18    72.38   1.001
  S226                       0.00       0.00       0.00       0.00       0.00       0.00       0.00        0.00     0.00   0.000
  S227                       0.00       0.00       0.00       0.00       0.00       0.00       0.00        0.00     0.00   0.000
  S228                    1370.05       0.00       0.00       0.00    1373.16       0.00    1373.16       13.73    18.36   1.002
  S229                    1413.45       0.00       0.00       0.00    1415.78       0.00    1415.78       28.32    37.87   1.002
  S230                       0.00       0.00       0.00       0.00       0.00       0.00       0.00        0.00     0.00   0.000
  S231                       0.00       0.00       0.00       0.00       0.00       0.00       0.00        0.00     0.00   0.000
  S232                       0.00       0.00       0.00       0.00       0.00       0.00       0.00        0.00     0.00   0.000
  S233                       0.00       0.00       0.00       0.00       0.00       0.00       0.00        0.00     0.00   0.000
  S234                       0.00       0.00       0.00       0.00       0.00       0.00       0.00        0.00     0.00   0.000
  S235                       0.00       0.00       0.00       0.00       0.00       0.00       0.00        0.00     0.00   0.000
  S236                       0.00       0.00       0.00       0.00       0.00       0.00       0.00        0.00     0.00   0.000
  S237                    1398.85       0.00       0.00       0.00    1399.62       0.00    1399.62      258.93   244.27   1.001
  S238                       0.00       0.00       0.00       0.00       0.00       0.00       0.00        0.00     0.00   0.000
  S239                       0.00       0.00       0.00       0.00       0.00       0.00       0.00        0.00     0.00   0.000
  S240                       0.00       0.00       0.00       0.00       0.00       0.00       0.00        0.00     0.00   0.000
  S241                    1374.66       0.00       0.00       0.00    1376.78       0.00    1376.78       34.42    40.05   1.002
  S242                       0.00       0.00       0.00       0.00       0.00       0.00       0.00        0.00     0.00   0.000
  S243                       0.00       0.00       0.00       0.00       0.00       0.00       0.00        0.00     0.00   0.000
  S244                    1365.56       0.00       0.00       0.00    1366.94       0.00    1366.94       92.27   102.84   1.001
  S245                    1369.60       0.00       0.00       0.00    1371.23       0.00    1371.23       65.13    74.22   1.001
  S246                       0.00       0.00       0.00       0.00       0.00       0.00       0.00        0.00     0.00   0.000
  S247                       0.00       0.00       0.00       0.00       0.00       0.00       0.00        0.00     0.00   0.000
  S248                       0.00       0.00       0.00       0.00       0.00       0.00       0.00        0.00     0.00   0.000
  S249                       0.00       0.00       0.00       0.00       0.00       0.00       0.00        0.00     0.00   0.000
  S250                       0.00       0.00       0.00       0.00       0.00       0.00       0.00        0.00     0.00   0.000
  S251                       0.00       0.00       0.00       0.00       0.00       0.00       0.00        0.00     0.00   0.000
  S252                    1425.46       0.00       0.00       0.00    1426.93       0.00    1426.93       82.05    90.41   1.001
  S253                       0.00       0.00       0.00       0.00       0.00       0.00       0.00        0.00     0.00   0.000
  S254                       0.00       0.00       0.00       0.00       0.00       0.00       0.00        0.00     0.00   0.000
  S255                       0.00       0.00       0.00       0.00       0.00       0.00       0.00        0.00     0.00   0.000
  S256                       0.00       0.00       0.00       0.00       0.00       0.00       0.00        0.00     0.00   0.000
  S257                    1364.67       0.00       0.00       0.00    1365.98       0.00    1365.98      102.45   112.96   1.001
  S258                       0.00       0.00       0.00       0.00       0.00       0.00       0.00        0.00     0.00   0.000
  S259                       0.00       0.00       0.00       0.00       0.00       0.00       0.00        0.00     0.00   0.000
  S260                       0.00       0.00       0.00       0.00       0.00       0.00       0.00        0.00     0.00   0.000
  S261                       0.00       0.00       0.00       0.00       0.00       0.00       0.00        0.00     0.00   0.000
  S262                       0.00       0.00       0.00       0.00       0.00       0.00       0.00        0.00     0.00   0.000
  S263                       0.00       0.00       0.00       0.00       0.00       0.00       0.00        0.00     0.00   0.000
  S264                       0.00       0.00       0.00       0.00       0.00       0.00       0.00        0.00     0.00   0.000
  S265                       0.00       0.00       0.00       0.00       0.00       0.00       0.00        0.00     0.00   0.000
  S266                       0.00       0.00       0.00       0.00       0.00       0.00       0.00        0.00     0.00   0.000
  S267                       0.00       0.00       0.00       0.00       0.00       0.00       0.00        0.00     0.00   0.000
  S268                       0.00       0.00       0.00       0.00       0.00       0.00       0.00        0.00     0.00   0.000
  S269                       0.00       0.00       0.00       0.00       0.00       0.00       0.00        0.00     0.00   0.000
  S270                       0.00       0.00       0.00       0.00       0.00       0.00       0.00        0.00     0.00   0.000
  S271                    1359.91       0.00       0.00       0.00    1361.72       0.00    1361.72       51.06    60.01   1.001
  S272                       0.00       0.00       0.00       0.00       0.00       0.00       0.00        0.00     0.00   0.000
  S273                       0.00       0.00       0.00       0.00       0.00       0.00       0.00        0.00     0.00   0.000
  
  
  ******************
  Node Depth Summary
  ******************
  
  ---------------------------------------------------------------------------------
                                 Average  Maximum  Maximum  Time of Max    Reported
                                   Depth    Depth      HGL   Occurrence   Max Depth
  Node                 Type       Meters   Meters   Meters  days hr:min      Meters
  ---------------------------------------------------------------------------------
  0                    JUNCTION     0.00     0.00  1872.50     0  00:00        0.00
  1                    JUNCTION     0.00     0.00  1762.50     0  00:00        0.00
  2                    JUNCTION     0.00     0.00  1680.00     0  00:00        0.00
  3                    JUNCTION     0.00     0.00  1432.50     0  00:00        0.00
  4                    JUNCTION     0.02     0.10  1955.10   259  03:00        0.10
  5                    JUNCTION     0.03     0.15  1817.65   259  03:17        0.15
  6                    JUNCTION     0.00     0.00  1350.00     0  00:00        0.00
  7                    JUNCTION     0.47     1.20  1626.20   259  04:15        1.20
  8                    JUNCTION     0.47     1.20  1626.20   259  04:15        1.20
  9                    JUNCTION     0.47     1.20  1626.20   259  04:15        1.20
  10                   JUNCTION     0.47     1.20  1626.20   259  04:15        1.20
  11                   JUNCTION     0.04     0.18  1927.68   259  03:03        0.18
  12                   JUNCTION     0.05     0.24  1762.74   262  21:02        0.24
  13                   JUNCTION     0.04     0.15  1515.15   237  07:02        0.15
  14                   JUNCTION     0.17     0.53  1323.03   259  03:15        0.53
  15                   JUNCTION     0.16     0.51  1323.01   259  03:16        0.50
  16                   JUNCTION     0.06     0.26  1322.76   259  03:11        0.26
  17                   JUNCTION     0.02     0.11  1790.11   259  03:01        0.11
  18                   JUNCTION     0.07     0.22  1625.22   259  04:09        0.22
  19                   JUNCTION     0.36   153.03  1915.53     2  09:02        0.62
  20                   JUNCTION     0.00   124.89  1914.89     2  09:02        0.00
  21                   JUNCTION     0.06     0.25  1707.75   262  21:02        0.25
  22                   JUNCTION     0.11   204.00  1966.50     2  09:02        0.20
  23                   JUNCTION     0.00   204.00  1994.00     2  09:02        0.00
  24                   JUNCTION     0.45   140.15  1847.65     2  09:02        0.76
  25                   JUNCTION     0.07   204.00  1939.00     2  09:02        0.13
  26                   JUNCTION     0.32     0.88  1488.38   259  03:17        0.88
  27                   JUNCTION     0.05     0.18  1515.18   259  03:49        0.18
  28                   JUNCTION     0.03     0.13  1625.13   259  03:06        0.12
  29                   JUNCTION     0.44   122.29  1829.79     2  09:02        0.74
  30                   JUNCTION     0.00   204.00  1939.00     2  09:02        0.01
  31                   JUNCTION     0.57     1.95  1269.45   259  03:29        1.93
  32                   JUNCTION     0.57     1.95  1269.45   259  03:29        1.93
  33                   JUNCTION     0.08     0.26  1487.76   259  03:15        0.26
  34                   JUNCTION     0.00     0.04  1515.04   262  19:00        0.04
  35                   JUNCTION     0.57     1.95  1269.45   259  03:29        1.93
  36                   JUNCTION     0.57     1.95  1269.45   259  03:29        1.93
  37                   JUNCTION     0.57     1.95  1269.45   259  03:29        1.93
  38                   JUNCTION     0.36   103.95  1783.95     2  09:02        0.62
  39                   JUNCTION     0.07   204.00  1911.50     2  09:02        0.13
  40                   JUNCTION     0.57     1.95  1269.45   259  03:29        1.93
  41                   JUNCTION     0.57     1.94  1269.44   259  03:29        1.93
  42                   JUNCTION     0.34     0.88  1460.88   259  03:26        0.87
  43                   JUNCTION     0.12   176.64  1856.64     2  09:02        0.23
  44                   JUNCTION     0.00   128.15  1835.65     2  09:02        0.01
  45                   JUNCTION     0.07     0.26  1460.26     2  09:02        0.24
  46                   JUNCTION     0.01     0.08  1680.08   262  19:00        0.08
  47                   JUNCTION     0.07     0.27  1570.27   262  21:00        0.27
  48                   JUNCTION     0.24     0.97  1625.97   262  21:12        0.97
  49                   JUNCTION     0.24     0.97  1625.97   262  21:12        0.97
  50                   JUNCTION     0.00     0.05  1652.55   262  19:10        0.04
  51                   JUNCTION     0.53     1.78  1269.28   259  03:32        1.76
  52                   JUNCTION     0.53     1.77  1269.27   259  03:32        1.76
  53                   JUNCTION     0.24     0.97  1625.97   262  21:12        0.97
  54                   JUNCTION     0.24     0.97  1625.97   262  21:12        0.97
  55                   JUNCTION     0.53     1.77  1269.27   259  03:32        1.76
  56                   JUNCTION     0.52     1.76  1269.26   259  03:32        1.75
  57                   JUNCTION     0.41    99.23  1696.73     2  09:02        0.75
  58                   JUNCTION     0.07   154.47  1779.47     2  09:02        0.13
  59                   JUNCTION     0.24     0.97  1625.97   262  21:12        0.97
  60                   JUNCTION     0.24     0.97  1625.97   262  21:12        0.97
  61                   JUNCTION     0.39    57.66  1655.16     2  09:02        0.71
  62                   JUNCTION     0.00   204.00  1829.00     2  09:02        0.01
  63                   JUNCTION     0.24     0.97  1625.97   262  21:12        0.97
  64                   JUNCTION     0.24     0.97  1625.97   262  21:12        0.97
  65                   JUNCTION     0.24     0.97  1625.97   262  21:12        0.97
  66                   JUNCTION     0.48     1.58  1269.08   259  03:36        1.57
  67                   JUNCTION     0.43   199.09  1769.09     2  09:02        0.82
  68                   JUNCTION     0.07     4.00  1601.50     2  09:02        0.14
  69                   JUNCTION     0.04     0.16  1597.66   262  21:04        0.16
  70                   JUNCTION     0.24     0.97  1625.97   262  21:12        0.97
  71                   JUNCTION     0.24     0.97  1625.97   262  21:12        0.97
  72                   JUNCTION     0.46     1.50  1269.00   259  03:36        1.49
  73                   JUNCTION     0.45     1.48  1268.98   259  03:36        1.47
  74                   JUNCTION     0.41   204.00  1774.00     2  09:02        0.79
  75                   JUNCTION     0.00   120.11  1717.61     2  09:02        0.01
  76                   JUNCTION     0.28     0.99  1570.99   262  21:03        0.99
  77                   JUNCTION     0.00     0.01  1597.51   262  21:05        0.01
  78                   JUNCTION     0.04     0.21  1652.71   262  21:04        0.21
  79                   JUNCTION     0.45     1.48  1268.98   259  03:36        1.47
  80                   JUNCTION     0.44     1.46  1268.96   259  03:36        1.45
  81                   JUNCTION     0.40    66.25  1608.75     2  09:02        0.84
  82                   JUNCTION     0.07     3.71  1573.71     2  09:02        0.17
  83                   JUNCTION     0.21     0.95  1268.45     2  09:02        0.79
  84                   JUNCTION     0.10     3.22  1545.72     2  09:03        0.24
  85                   JUNCTION     0.00     0.86  1570.86     2  09:02        0.02
  86                   JUNCTION     0.29     0.95  1488.45   262  21:03        0.95
  87                   JUNCTION     0.04     0.16  1515.16   262  21:01        0.16
  88                   JUNCTION     0.24     0.86  1570.86   262  21:04        0.86
  89                   JUNCTION     0.28     0.92  1488.42   262  21:04        0.91
  90                   JUNCTION     0.00     0.02  1515.02   262  21:02        0.02
  91                   JUNCTION     0.07     0.29  1570.29   262  21:05        0.29
  92                   JUNCTION     0.18     0.70  1625.70   262  21:06        0.70
  93                   JUNCTION     0.00     0.01  1652.51   262  21:06        0.01
  94                   JUNCTION     0.04     0.19  1625.19   262  21:06        0.19
  95                   JUNCTION     0.27     0.88  1460.88   262  21:04        0.87
  96                   JUNCTION     0.04     0.16  1487.66   262  21:04        0.16
  97                   JUNCTION     0.32     0.57  1378.07   259  03:11        0.57
  98                   JUNCTION     0.00     0.00  1405.00   262  19:18        0.00
  99                   JUNCTION     0.26     0.83  1460.83   262  21:03        0.83
  100                  JUNCTION     0.01     0.09  1487.59   262  21:00        0.09
  101                  JUNCTION     0.08     0.31  1625.31   262  21:00        0.31
  102                  JUNCTION     0.31     0.55  1378.05   259  03:12        0.55
  103                  JUNCTION     0.00     0.00  1405.00   254  20:21        0.00
  104                  JUNCTION     0.05     0.21  1460.21   262  21:04        0.20
  105                  JUNCTION     0.08     0.35  1542.85   262  21:07        0.35
  106                  JUNCTION     0.02     0.12  1625.12   262  21:00        0.12
  107                  JUNCTION     0.40    17.77  1422.77     2  09:03        0.86
  108                  JUNCTION     0.07     1.97  1434.47     2  09:03        0.18
  109                  JUNCTION     0.33     1.10  1433.60   262  21:07        1.09
  110                  JUNCTION     0.15     0.63  1598.13   262  21:01        0.63
  111                  JUNCTION     0.02     0.12  1570.12   262  21:00        0.12
  112                  JUNCTION     0.11     3.73  1408.73     2  09:03        0.27
  113                  JUNCTION     0.00     0.66  1433.16     2  09:03        0.02
  114                  JUNCTION     0.26     0.45  1350.45   259  03:13        0.45
  115                  JUNCTION     0.04     0.09  1377.59   259  03:12        0.09
  116                  JUNCTION     0.00     0.03  1460.03   262  21:05        0.02
  117                  JUNCTION     0.00     0.04  1570.04   262  21:09        0.04
  118                  JUNCTION     0.01     0.06  1625.06   262  19:01        0.06
  119                  JUNCTION     0.05     0.19  1405.19   259  03:16        0.19
  120                  JUNCTION     0.04     0.17  1405.17   259  03:06        0.17
  121                  JUNCTION     0.07     0.15  1350.15   259  03:19        0.14
  122                  JUNCTION     0.00     0.01  1377.51   259  03:13        0.00
  123                  JUNCTION     0.32     1.04  1433.54   262  21:08        1.03
  124                  JUNCTION     0.14     0.57  1598.07   262  21:01        0.57
  125                  JUNCTION     0.05     0.23  1542.73   262  21:20        0.22
  126                  JUNCTION     0.02     0.14  1597.64   262  19:12        0.14
  127                  JUNCTION     0.03     0.13  1377.63   259  03:08        0.13
  128                  JUNCTION     0.00     0.00  1570.00   262  21:11        0.00
  129                  JUNCTION     0.14     0.49  1487.99   262  21:08        0.49
  130                  JUNCTION     0.51     1.55  1241.55   259  03:35        1.54
  131                  JUNCTION     0.49     1.47  1241.47   259  03:35        1.47
  132                  JUNCTION     0.49    36.02  1358.52     2  09:04        1.07
  133                  JUNCTION     0.07    11.43  1361.43     2  09:04        0.19
  134                  JUNCTION     0.04     0.20  1542.70   262  21:26        0.19
  135                  JUNCTION     0.49     1.47  1241.47   259  03:35        1.46
  136                  JUNCTION     0.47     1.37  1241.37   259  03:34        1.36
  137                  JUNCTION     0.43     1.08  1241.08   259  03:34        1.08
  138                  JUNCTION     0.47    39.65  1362.15     2  09:03        1.03
  139                  JUNCTION     0.00     2.12  1352.12     2  09:04        0.02
  140                  JUNCTION     0.10     0.43  1432.93   262  21:10        0.42
  141                  JUNCTION     0.07     0.32  1460.32   262  21:08        0.32
  142                  JUNCTION     0.00     0.05  1542.55   262  21:09        0.05
  143                  JUNCTION     0.03     0.16  1542.66   262  19:11        0.16
  144                  JUNCTION     0.02     0.14  1570.14   262  19:11        0.14
  145                  JUNCTION     0.03     0.19  1570.19   262  21:05        0.19
  146                  JUNCTION     0.02     0.13  1625.13   262  21:18        0.13
  147                  JUNCTION     0.06     0.27  1487.77   262  21:22        0.27
  148                  JUNCTION     0.44     1.26  1241.26   259  03:34        1.26
  149                  JUNCTION     0.17     0.63  1213.13   259  03:37        0.62
  150                  JUNCTION     0.11     0.40  1240.40   259  03:34        0.40
  151                  JUNCTION     0.00     0.00  1542.50   262  21:13        0.00
  152                  JUNCTION     0.13     0.47  1487.97   262  21:13        0.47
  153                  JUNCTION     0.09     2.38  1324.88     2  09:04        0.25
  154                  JUNCTION     0.18     0.76  1515.76   262  19:27        0.76
  155                  JUNCTION     0.09     2.29  1297.29     2  09:05        0.24
  156                  JUNCTION     0.18     0.74  1515.74   262  19:27        0.74
  157                  JUNCTION     0.14     0.49  1487.99   262  21:14        0.48
  158                  JUNCTION     0.14     0.49  1487.99   262  21:13        0.49
  159                  JUNCTION     0.14     0.49  1487.99   262  21:15        0.48
  160                  JUNCTION     0.14     0.49  1487.99   262  21:14        0.48
  161                  JUNCTION     0.11     2.76  1270.26     2  09:05        0.28
  162                  JUNCTION     0.03     0.19  1267.69     2  09:07        0.16
  163                  JUNCTION     0.01     0.99  1268.49     2  09:05        0.07
  164                  JUNCTION     0.22     0.92  1405.92   262  21:02        0.92
  165                  JUNCTION     0.01     0.09  1432.59   262  21:00        0.09
  166                  JUNCTION     0.02     0.13  1515.13   262  19:29        0.13
  167                  JUNCTION     0.22     0.92  1405.92   262  21:02        0.92
  168                  JUNCTION     0.01     0.05  1432.55   262  19:00        0.05
  169                  JUNCTION     0.13     0.47  1487.97   262  21:41        0.47
  170                  JUNCTION     0.13     0.47  1487.97   262  21:40        0.47
  171                  JUNCTION     0.13     0.47  1487.97   262  21:42        0.47
  172                  JUNCTION     0.13     0.47  1487.97   262  21:41        0.47
  173                  JUNCTION     0.13     0.47  1487.97   262  21:41        0.47
  174                  JUNCTION     0.01     0.06  1377.56   262  21:00        0.06
  175                  JUNCTION     0.00     0.00  1432.50     0  00:00        0.00
  176                  JUNCTION     0.10     2.12  1242.12     2  09:06        0.25
  177                  JUNCTION     0.13     0.47  1487.97   262  21:43        0.47
  178                  JUNCTION     0.13     0.47  1487.97   262  21:42        0.47
  179                  JUNCTION     0.13     0.47  1487.97   262  21:42        0.47
  180                  JUNCTION     0.13     0.46  1322.96   262  21:02        0.46
  181                  JUNCTION     0.13     0.47  1487.97   262  21:43        0.47
  182                  JUNCTION     0.13     0.47  1487.97   262  21:43        0.47
  183                  JUNCTION     0.13     0.47  1487.97   262  21:43        0.47
  184                  JUNCTION     0.49     1.56  1186.56   259  03:26        1.54
  185                  JUNCTION     0.48     1.53  1186.53   259  03:26        1.52
  186                  JUNCTION     0.42     1.10  1378.60   262  19:14        1.05
  187                  JUNCTION     0.00     0.01  1405.01   259  03:03        0.01
  188                  JUNCTION     0.13     0.47  1487.97   262  21:43        0.47
  189                  JUNCTION     0.13     0.47  1487.97   262  21:43        0.47
  190                  JUNCTION     0.13     0.47  1487.97   262  21:43        0.47
  191                  JUNCTION     0.00     0.00  1377.50   262  21:01        0.00
  192                  JUNCTION     0.48     1.53  1186.53   259  03:26        1.52
  193                  JUNCTION     0.48     1.50  1186.50   259  03:26        1.48
  194                  JUNCTION     0.39     0.95  1378.45   262  19:14        0.90
  195                  JUNCTION     0.00     0.00  1405.00   221  18:02        0.00
  196                  JUNCTION     0.01     0.08  1322.58   262  21:06        0.08
  197                  JUNCTION     0.42     1.31  1186.31   259  03:26        1.30
  198                  JUNCTION     0.41     1.25  1186.25   259  03:25        1.24
  199                  JUNCTION     0.11     0.43  1295.43   262  21:08        0.42
  200                  JUNCTION     0.08     0.28  1377.78   262  19:17        0.27
  201                  JUNCTION     0.01     0.10  1405.10   262  19:32        0.10
  202                  JUNCTION     0.01     0.11  1432.61   262  19:30        0.11
  203                  JUNCTION     0.03     0.16  1432.66   262  21:07        0.16
  204                  JUNCTION     0.02     0.11  1460.11   262  21:07        0.11
  205                  JUNCTION     0.02     0.12  1487.62   262  21:07        0.12
  206                  JUNCTION     0.02     0.13  1487.63   262  21:47        0.13
  207                  JUNCTION     0.13     0.48  1487.98   262  21:42        0.47
  208                  JUNCTION     0.16     0.49  1295.49   259  04:13        0.49
  209                  JUNCTION     0.16     0.49  1295.49   259  04:11        0.49
  210                  JUNCTION     0.41     1.25  1186.25   259  03:26        1.24
  211                  JUNCTION     0.39     1.17  1186.17   259  03:26        1.16
  212                  JUNCTION     0.36     1.03  1186.03   259  03:24        1.03
  213                  JUNCTION     0.16     0.49  1295.49   259  04:14        0.48
  214                  JUNCTION     0.16     0.49  1295.49   259  04:13        0.49
  215                  JUNCTION     0.36     1.08  1186.08   259  03:26        1.07
  216                  JUNCTION     0.09     0.35  1185.35   259  03:25        0.35
  217                  JUNCTION     0.42     1.31  1158.81   259  03:27        1.30
  218                  JUNCTION     0.09     0.36  1240.36   262  21:12        0.36
  219                  JUNCTION     0.37     1.00  1241.00   262  21:08        0.99
  220                  JUNCTION     0.02     0.11  1460.11   262  21:21        0.11
  221                  JUNCTION     0.12     0.46  1157.96   259  03:23        0.45
  222                  JUNCTION     0.05     0.25  1157.75   259  03:09        0.25
  223                  JUNCTION     0.11     7.98  1220.48     2  09:02        0.39
  224                  JUNCTION     0.06     0.93  1240.93     2  09:05        0.17
  225                  JUNCTION     0.02     0.14  1405.14   262  21:11        0.14
  226                  JUNCTION     0.15     0.47  1295.47   259  04:35        0.46
  227                  JUNCTION     0.42     1.31  1158.81   259  03:27        1.30
  228                  JUNCTION     0.31     0.83  1240.83   262  21:10        0.82
  229                  JUNCTION     0.29     0.83  1323.33   262  19:13        0.81
  230                  JUNCTION     0.04     0.16  1350.16   262  19:18        0.16
  231                  JUNCTION     0.02     0.13  1377.63   262  21:11        0.13
  232                  JUNCTION     0.28     0.77  1323.27   262  19:16        0.76
  233                  JUNCTION     0.00     0.02  1350.02   262  19:13        0.01
  234                  JUNCTION     0.06     0.22  1157.72   259  03:27        0.21
  235                  JUNCTION     0.49     1.72  1131.72   259  03:29        1.71
  236                  JUNCTION     0.50     3.31  1133.31     2  09:08        1.46
  237                  JUNCTION     0.51     3.51  1133.51     2  09:07        1.46
  238                  JUNCTION     0.55    16.81  1146.81     2  09:06        1.55
  239                  JUNCTION     0.04     0.14  1322.64   262  19:14        0.13
  240                  JUNCTION     0.44     1.67  1131.67     2  09:11        1.60
  241                  JUNCTION     0.42     1.97  1131.97     2  09:09        1.43
  242                  JUNCTION     0.23     0.71  1295.71   262  21:07        0.71
  243                  JUNCTION     0.21     1.69  1131.69   259  03:29        1.67
  244                  JUNCTION     0.37     1.62  1131.62   259  03:29        1.60
  245                  JUNCTION     0.24     1.43  1131.43     2  09:10        1.03
  246                  JUNCTION     0.50     3.49  1133.49     2  09:07        1.43
  247                  JUNCTION     0.51     3.59  1133.59     2  09:07        1.45
  248                  JUNCTION     0.53     3.84  1133.84     2  09:03        1.50
  249                  JUNCTION     0.09   150.49  1335.49     2  09:02        0.33
  250                  JUNCTION     0.07     0.24  1240.24   262  21:10        0.24
  251                  JUNCTION     0.07     0.28  1295.28   262  21:04        0.28
  252                  JUNCTION     0.02     0.12  1322.62   262  21:19        0.12
  253                  JUNCTION     0.02     0.13  1322.63   262  21:33        0.13
  254                  JUNCTION     0.01     0.05  1295.05   262  21:24        0.05
  255                  JUNCTION     0.51     3.53  1133.53     2  09:08        1.44
  256                  JUNCTION    20.43    29.24  1131.74   259  03:30       29.20
  257                  JUNCTION     0.04     0.16  1212.66   262  21:13        0.16
  258                  JUNCTION    20.43    29.24  1131.74   259  03:34       29.22
  259                  JUNCTION     0.13     1.13  1131.13     2  09:09        0.43
  260                  JUNCTION     0.08     1.27  1158.77     2  09:03        0.29
  261                  JUNCTION     0.11     0.95  1103.45     2  09:04        0.39
  262                  JUNCTION     5.35    20.32  1095.32     2  09:09        7.63
  263                  JUNCTION     0.03     0.15  1432.65   262  21:30        0.15
  264                  JUNCTION     5.35    17.96  1092.96     2  09:09        7.49
  265                  JUNCTION     0.04     0.16  1130.16     2  09:14        0.16
  266                  JUNCTION     0.06     0.22  1047.72   262  21:24        0.22
  267                  JUNCTION     0.03     0.16  1295.16   262  21:45        0.16
  268                  JUNCTION    12.89    15.51  1035.51   112  23:12       15.26
  269                  JUNCTION    37.93    42.83  1035.33   112  23:12       42.75
  270                  OUTFALL      0.31     0.67  1120.67   259  03:34        0.67
  271                  OUTFALL      0.32     2.60  1082.60     2  09:09        1.47
  272                  OUTFALL      0.04     0.25  1035.25   262  21:30        0.24
  
  
  *******************
  Node Inflow Summary
  *******************
  
  -------------------------------------------------------------------------------------------------
                                  Maximum  Maximum                  Lateral       Total        Flow
                                  Lateral    Total  Time of Max      Inflow      Inflow     Balance
                                   Inflow   Inflow   Occurrence      Volume      Volume       Error
  Node                 Type           LPS      LPS  days hr:min    10^6 ltr    10^6 ltr     Percent
  -------------------------------------------------------------------------------------------------
  0                    JUNCTION      0.00     0.00     0  00:00           0           0       0.000 ltr
  1                    JUNCTION      0.00     0.00     0  00:00           0           0       0.000 ltr
  2                    JUNCTION      0.00     0.00     0  00:00           0           0       0.000 ltr
  3                    JUNCTION      0.00     0.00     0  00:00           0           0       0.000 ltr
  4                    JUNCTION    263.34   263.34   259  03:00         371         371      -0.052
  5                    JUNCTION    160.76   423.83   259  03:00         210         581      -0.088
  6                    JUNCTION      0.00     0.00     0  00:00           0           0       0.000 ltr
  7                    JUNCTION    326.36   358.83   259  04:00         967    1.01e+03       0.001
  8                    JUNCTION    329.40   329.40   259  03:00         489         600       0.035
  9                    JUNCTION      0.00   660.46   259  04:00           0    1.59e+03       0.007
  10                   JUNCTION    112.27   303.57   259  03:59         138         693       0.000
  11                   JUNCTION    263.33   263.33   259  03:00         374         374      -0.134
  12                   JUNCTION    467.05   467.05   262  21:00         499         499       0.002
  13                   JUNCTION    419.89   419.89   237  07:00         854         854       0.002
  14                   JUNCTION    518.13   518.13   259  03:00         791         791       0.001
  15                   JUNCTION    131.32   332.38   259  03:01         190         506       0.002
  16                   JUNCTION    135.75   770.14   259  03:09         149    1.13e+03      -0.012
  17                   JUNCTION    233.11   233.11   259  03:00         325         325      -0.002
  18                   JUNCTION    152.15   787.91   259  04:00         196    1.79e+03       0.000
  19                   JUNCTION     53.53186160.95     2  09:02        62.3    3.46e+03      17.505
  20                   JUNCTION      0.00185106.08     2  09:02           0         375     -89.039
  21                   JUNCTION    615.26   615.26   262  21:00         843         843      -0.001
  22                   JUNCTION      0.00185661.97     2  09:02           0    2.95e+03      -0.308
  23                   JUNCTION      0.001552543.61     2  09:02           0        25.9       0.000
  24                   JUNCTION      0.00275556.54     2  09:02           0    2.92e+03      -5.207
  25                   JUNCTION      0.007238065.78     2  09:02           0    3.07e+03       3.619
  26                   JUNCTION    181.93  1164.07   259  03:18         209     2.3e+03       0.000
  27                   JUNCTION    267.68  1017.82   259  03:48         321    2.11e+03      -0.001
  28                   JUNCTION    165.21   397.62   259  03:00         220         545      -0.041
  29                   JUNCTION      0.002744470.78     2  09:02           0       3e+03      -1.021
  30                   JUNCTION      0.003471199.91     2  09:02           0        90.9       0.000
  31                   JUNCTION    241.61  1007.08   259  03:08         315    1.45e+03       0.011
  32                   JUNCTION      0.00   558.96   259  03:20           0         805       0.001
  33                   JUNCTION      0.00  1197.18   259  03:14           0    2.34e+03      -0.000
  34                   JUNCTION     37.93    43.43   262  19:00        18.7        43.3       0.000
  35                   JUNCTION    248.09   664.76   259  03:15         300         940       0.000
  36                   JUNCTION     69.01  1281.75   259  03:19        72.9    1.82e+03       0.001
  37                   JUNCTION    654.39  1080.36   259  03:12         859    1.53e+03       0.000
  38                   JUNCTION     30.30300115.97     2  09:02          21    2.98e+03      -5.152
  39                   JUNCTION     38.9216569948.36     2  09:02        32.7    3.26e+03       8.686
  40                   JUNCTION    127.32   871.06   259  03:13        85.6    1.23e+03       0.000
  41                   JUNCTION    106.11  2043.41   259  03:15         114    2.88e+03      -0.002
  42                   JUNCTION      0.00  1346.46   259  03:18           0    2.65e+03      -0.003
  43                   JUNCTION     43.681257070.65     2  09:02        35.2    3.07e+03       0.200
  44                   JUNCTION      0.00496971.87     2  09:02           0        43.7       0.000
  45                   JUNCTION      0.00  1596.53     2  09:02           0    2.65e+03      -0.049
  46                   JUNCTION     81.23    81.23   262  19:00        54.4        54.4      -0.300
  47                   JUNCTION    806.55   806.55   262  21:00    1.13e+03    1.13e+03      -0.000
  48                   JUNCTION     21.08    39.12   262  21:02        27.9        40.9       0.000
  49                   JUNCTION      0.00    60.39   262  19:10           0        43.4       0.054
  50                   JUNCTION      0.00    81.07   262  19:00           0        54.6      -2.405
  51                   JUNCTION    613.88  2576.99   259  03:18         774    3.65e+03       0.004
  52                   JUNCTION     71.41  1335.49   259  03:22        51.5    1.89e+03       0.000
  53                   JUNCTION      0.00    68.14   262  21:18           0        71.4       0.003
  54                   JUNCTION      0.00    30.20   262  21:05           0        30.4       0.000
  55                   JUNCTION    136.46  1354.32   259  03:21        99.5    1.91e+03       0.000
  56                   JUNCTION      0.00  2686.10   259  03:23           0     3.8e+03      -0.001
  57                   JUNCTION      0.00262040.67     2  09:02           0    3.02e+03      -0.299
  58                   JUNCTION      0.00696827.17     2  09:02           0    3.06e+03       0.033
  59                   JUNCTION    138.91   138.91   262  19:00        75.3        92.6       0.000
  60                   JUNCTION      0.00    73.55   262  21:00           0        78.5       0.003
  61                   JUNCTION     42.86273387.55     2  09:02        39.5    3.09e+03      -2.527
  62                   JUNCTION      0.004872710.11     2  09:02           0         110       0.000
  63                   JUNCTION    156.77   182.74   262  21:00        74.3         136       0.000
  64                   JUNCTION      0.00   167.95   262  21:10           0         147       0.002
  65                   JUNCTION      0.00    71.04   262  21:05           0        61.2       0.000
[...]
  279                     1.00   0.00  0.00  0.00  1.00  0.00  0.00  0.00  0.00  0.00
  280                     1.00   0.00  0.00  0.00  1.00  0.00  0.00  0.00  0.00  0.00
  281                     1.00   0.00  0.00  0.00  1.00  0.00  0.00  0.00  0.00  0.00
  282                     1.00   0.00  0.00  0.00  1.00  0.00  0.00  0.00  0.00  0.00
  283                     1.00   0.00  1.00  0.00  0.00  0.00  0.00  0.00  0.99  0.00
  284                     1.00   0.00  0.00  0.00  1.00  0.00  0.00  0.00  0.00  0.00
  285                     1.00   0.00  0.00  0.00  1.00  0.00  0.00  0.00  0.00  0.00
  286                     1.00   0.00  0.00  0.00  1.00  0.00  0.00  0.00  0.00  0.00
  287                     1.00   0.00  0.00  0.00  1.00  0.00  0.00  0.00  0.00  0.00
  288                     1.00   0.00  0.00  0.00  1.00  0.00  0.00  0.00  0.00  0.00
  289                     1.00   0.00  0.00  0.00  1.00  0.00  0.00  0.00  0.00  0.00
  290                     1.00   0.00  0.00  0.00  1.00  0.00  0.00  0.00  0.00  0.00
  291                     1.00   0.00  0.00  0.00  0.00  1.00  0.00  0.00  0.00  0.00
  292                     1.00   0.00  0.00  0.00  1.00  0.00  0.00  0.00  0.99  0.00
  293                     1.00   0.00  0.00  0.00  0.05  0.95  0.00  0.00  0.09  0.00
  294                     1.00   0.00  0.02  0.00  0.02  0.97  0.00  0.00  0.92  0.00
  295                     1.00   0.00  0.00  0.00  1.00  0.00  0.00  0.00  0.00  0.00
  296                     1.00   0.00  0.00  0.00  1.00  0.00  0.00  0.00  0.99  0.00
  297                     1.00   0.00  0.00  0.00  1.00  0.00  0.00  0.00  0.00  0.00
  298                     1.00   0.00  0.00  0.00  1.00  0.00  0.00  0.00  0.00  0.00
  299                     1.00   0.00  0.00  0.00  1.00  0.00  0.00  0.00  0.00  0.00
  300                     1.00   0.00  0.00  0.00  1.00  0.00  0.00  0.00  0.00  0.00
  301                     1.00   0.00  0.00  0.00  1.00  0.00  0.00  0.00  0.00  0.00
  302                     1.00   0.00  0.00  0.00  1.00  0.00  0.00  0.00  0.00  0.00
  303                     1.00   0.00  0.00  0.00  1.00  0.00  0.00  0.00  0.99  0.00
  304                     1.00   0.00  0.00  0.00  1.00  0.00  0.00  0.00  0.00  0.00
  305                     1.00   0.00  0.00  0.00  0.92  0.08  0.00  0.00  0.99  0.00
  306                     1.00   0.00  0.00  0.00  0.30  0.69  0.00  0.00  0.32  0.00
  307                     1.00   0.00  0.02  0.00  0.21  0.78  0.00  0.00  0.82  0.00
  308                     1.00   0.00  0.00  0.00  1.00  0.00  0.00  0.00  0.00  0.00
  309                     1.00   0.00  0.00  0.00  1.00  0.00  0.00  0.00  0.00  0.00
  310                     1.00   0.00  0.00  0.00  1.00  0.00  0.00  0.00  0.00  0.00
  311                     1.00   0.00  0.00  0.00  1.00  0.00  0.00  0.00  0.00  0.00
  312                     1.00   0.00  0.00  0.00  1.00  0.00  0.00  0.00  0.00  0.00
  313                     1.00   0.00  0.00  0.00  1.00  0.00  0.00  0.00  0.99  0.00
  314                     1.00   0.00  0.00  0.00  1.00  0.00  0.00  0.00  0.99  0.00
  315                     1.00   0.00  0.00  0.00  0.46  0.54  0.00  0.00  0.04  0.00
  316                     1.00   0.00  0.00  0.00  0.01  0.98  0.00  0.00  0.02  0.00
  317                     1.00   0.00  0.00  0.00  1.00  0.00  0.00  0.00  0.00  0.00
  318                     1.00   0.00  0.00  0.00  1.00  0.00  0.00  0.00  0.00  0.00
  319                     1.00   0.00  0.00  0.00  1.00  0.00  0.00  0.00  0.00  0.00
  320                     1.00   0.00  0.00  0.00  1.00  0.00  0.00  0.00  0.99  0.00
  321                     1.00   0.00  0.00  0.00  0.00  1.00  0.00  0.00  0.00  0.00
  322                     1.00   0.00  0.00  0.00  1.00  0.00  0.00  0.00  0.00  0.00
  323                     1.00   0.00  0.00  0.00  1.00  0.00  0.00  0.00  0.99  0.00
  324                     1.00   0.00  0.00  0.00  1.00  0.00  0.00  0.00  0.00  0.00
  325                     1.00   0.00  0.00  0.00  1.00  0.00  0.00  0.00  0.00  0.00
  326                     1.00   0.00  0.00  0.00  1.00  0.00  0.00  0.00  0.00  0.00
  327                     1.00   0.00  0.00  0.00  1.00  0.00  0.00  0.00  0.99  0.00
  328                     1.00   0.00  0.00  0.00  0.23  0.77  0.00  0.00  0.00  0.00
  329                     1.00   0.00  0.00  0.00  0.24  0.76  0.00  0.00  0.99  0.00
  330                     1.00   0.00  0.00  0.00  1.00  0.00  0.00  0.00  0.00  0.00
  331                     1.00   0.00  0.00  0.00  1.00  0.00  0.00  0.00  0.99  0.00
  332                     1.00   0.00  0.00  0.00  1.00  0.00  0.00  0.00  0.99  0.00
  333                     1.00   0.00  0.00  0.00  1.00  0.00  0.00  0.00  0.99  0.00
  334                     1.00   0.00  0.00  0.00  1.00  0.00  0.00  0.00  0.99  0.00
  335                     1.00   0.00  0.00  0.00  0.00  1.00  0.00  0.00  0.00  0.00
  336                     1.00   0.00  0.00  0.00  0.00  1.00  0.00  0.00  0.00  0.00
  337                     1.00   0.00  0.00  0.00  1.00  0.00  0.00  0.00  0.00  0.00
  338                     1.00   0.00  0.02  0.00  0.98  0.00  0.00  0.00  0.99  0.00
  339                     1.00   0.00  0.00  0.00  1.00  0.00  0.00  0.00  0.00  0.00
  340                     1.00   0.00  0.00  0.00  1.00  0.00  0.00  0.00  0.99  0.00
  341                     1.00   0.00  0.00  0.00  1.00  0.00  0.00  0.00  0.00  0.00
  342                     1.00   0.00  0.00  0.00  1.00  0.00  0.00  0.00  0.99  0.00
  343                     1.00   0.00  0.00  0.00  1.00  0.00  0.00  0.00  0.99  0.00
  344                     1.00   0.00  0.00  0.00  0.75  0.25  0.00  0.00  0.99  0.00
  345                     1.00   0.00  0.00  0.00  1.00  0.00  0.00  0.00  0.00  0.00
  346                     1.00   0.00  0.00  0.00  1.00  0.00  0.00  0.00  0.00  0.00
  347                     1.00   0.00  0.00  0.00  1.00  0.00  0.00  0.00  0.00  0.00
  348                     1.00   0.00  0.00  0.00  1.00  0.00  0.00  0.00  0.00  0.00
  349                     1.00   0.00  0.00  0.00  1.00  0.00  0.00  0.00  0.00  0.00
  350                     1.00   0.00  0.00  0.00  1.00  0.00  0.00  0.00  0.00  0.00
  351                     1.00   0.00  0.00  0.00  1.00  0.00  0.00  0.00  0.00  0.00
  352                     1.00   0.00  0.00  0.00  1.00  0.00  0.00  0.00  0.00  0.00
  353                     1.00   0.00  0.00  0.00  1.00  0.00  0.00  0.00  0.99  0.00
  354                     1.00   0.00  0.00  0.00  1.00  0.00  0.00  0.00  0.00  0.00
  355                     1.00   0.00  0.00  0.00  1.00  0.00  0.00  0.00  0.00  0.00
  356                     1.00   0.00  0.00  0.00  1.00  0.00  0.00  0.00  0.99  0.00
  357                     1.00   0.00  0.00  0.00  1.00  0.00  0.00  0.00  0.00  0.00
  358                     1.00   0.00  0.00  0.00  1.00  0.00  0.00  0.00  0.00  0.00
  359                     1.00   0.00  0.00  0.00  1.00  0.00  0.00  0.00  0.00  0.00
  360                     1.00   0.00  0.00  0.00  1.00  0.00  0.00  0.00  0.99  0.00
  361                     1.00   0.00  0.00  0.00  0.24  0.76  0.00  0.00  0.99  0.00
  362                     1.00   0.00  0.00  0.00  0.09  0.90  0.00  0.00  0.09  0.00
  363                     1.00   0.00  0.00  0.00  0.32  0.68  0.00  0.00  0.99  0.00
  364                     1.00   0.00  0.00  0.00  1.00  0.00  0.00  0.00  0.99  0.00
  365                     1.00   0.00  0.00  0.00  1.00  0.00  0.00  0.00  0.16  0.00
  366                     1.00   0.00  0.00  0.00  1.00  0.00  0.00  0.00  0.00  0.00
  367                     1.00   0.00  0.00  0.00  0.00  1.00  0.00  0.00  0.00  0.00
  368                     1.00   0.00  0.02  0.00  0.98  0.00  0.00  0.00  0.03  0.00
  369                     1.00   0.00  0.00  0.00  1.00  0.00  0.00  0.00  0.33  0.00
  370                     1.00   0.00  0.16  0.00  0.84  0.00  0.00  0.00  0.34  0.00
  
  
  *************************
  Conduit Surcharge Summary
  *************************
  
  ----------------------------------------------------------------------------
                                                           Hours        Hours 
                         --------- Hours Full --------   Above Full   Capacity
  Conduit                Both Ends  Upstream  Dnstream   Normal Flow   Limited
  ----------------------------------------------------------------------------
  1                           0.01      0.01      0.01    734.61         0.01
  16                          0.01      0.01      0.01    238.39         0.01
  17                          0.01      0.01      0.01    329.34         0.01
  25                          0.01      0.01      0.01      0.01         0.01
  26                          0.01      0.01      0.02      0.01         0.01
  27                          0.01      0.01      0.01      0.03         0.01
  31                          0.01      0.01      0.01   1073.89         0.01
  32                          0.01      0.01      0.01    524.95         0.01
  34                          0.01      0.01      0.01    147.98         0.01
  43                          0.02      0.02      0.02      0.05         0.02
  44                          0.01      0.01      0.02      0.01         0.01
  45                          0.01      0.02      0.01      0.01         0.01
  46                          0.01      0.01      0.03      0.01         0.01
  47                          0.01      0.01      0.01      0.04         0.01
  51                          0.04      0.04      0.04      0.09         0.03
  52                          0.01      0.01      0.04      0.01         0.01
  53                          0.02      0.04      0.02      1.80         0.02
  54                          0.01      0.01      0.01     99.53         0.01
  60                          0.02      0.02      0.04      0.01         0.01
  61                          0.01      0.02      0.01      0.05         0.01
  63                          0.01      0.01      0.01      1.51         0.01
  65                          0.01      0.01      0.01      7.78         0.01
  66                          0.01      0.01      0.01     61.56         0.01
  67                          0.01      0.01      0.01     20.38         0.01
  68                          0.01      0.01      0.01   1240.92         0.01
  69                          0.03      0.04      0.03      0.13         0.03
  70                          0.01      0.01      0.03      0.01         0.01
  71                          0.01      0.03      0.01      0.04         0.01
  72                          0.01      0.01      0.01    101.07         0.01
  73                          0.01      0.01      0.01     97.25         0.01
  75                          0.01      0.01      0.04      0.01         0.01
  76                          0.01      0.01      0.01      0.07         0.01
  77                          0.01      0.01      0.01    919.57         0.01
  94                          0.01      0.01      0.01    111.93         0.01
  95                          0.01      0.01      0.01    117.02         0.01
  96                          0.04      0.04      0.05      0.17         0.04
  97                          0.01      0.01      0.05      0.01         0.01
  98                          0.01      0.05      0.01      0.20         0.01
  99                          0.01      0.01      0.06      0.01         0.01
  100                         0.01      0.01      0.01      0.08         0.01
  107                         0.01      0.01      0.01     13.68         0.01
  108                         0.04      0.06      0.04      0.20         0.04
  109                         0.01      0.01      0.04      0.01         0.01
  110                         0.01      0.04      0.01     43.74         0.01
  111                         0.01      0.01      0.01     88.09         0.01
  116                         0.01      0.01      0.01    158.67         0.01
  117                         0.01      0.01      0.01    158.67         0.01
  118                         0.01      0.01      0.01    158.73         0.01
  119                         0.01      0.01      0.01    158.73         0.01
  120                         0.01      0.01      0.05      0.01         0.01
  121                         0.01      0.01      0.01      0.08         0.01
  122                         0.01      0.01      0.01     23.12         0.01
  123                         0.01      0.01      0.01      0.15         0.01
  126                         0.01      0.05      0.01     65.08         0.01
  129                         0.01      0.01      0.01    567.80         0.01
  130                         0.01      0.01      0.01    570.53         0.01
  131                         0.01      0.01      0.05      0.01         0.01
  132                         0.01      0.01      0.01      0.08         0.01
  133                         0.01      0.01      0.01      4.83         0.01
  135                         0.01      0.01      0.01     52.01         0.01
  146                         0.01      0.01      0.01      4.70         0.01
  148                         0.01      0.01      0.01     23.42         0.01
  158                         0.01      0.01      0.01     93.77         0.01
  160                         0.01      0.01      0.01    180.79         0.01
  166                         0.01      0.05      0.01     76.95         0.01
  168                         0.01      0.01      0.01      0.01         0.01
  169                         0.01      0.01      0.07      0.01         0.01
  170                         0.01      0.01      0.01      0.08         0.01
  181                         0.01      0.01      0.01    575.91         0.01
  183                         0.01      0.01      0.01      0.01         0.01
  184                         0.01      0.01      0.01      0.03         0.01
  194                         0.01      0.01      0.06    254.81         0.01
  197                         0.01      0.01      0.01      0.02         0.01
  200                         0.01      0.01      0.01    573.92         0.01
  201                         0.01      0.01      0.01    570.52         0.01
  202                         0.01      0.01      0.01    617.91         0.01
  203                         0.01      0.01      0.01    617.91         0.01
  204                         0.06      0.07      0.06     98.68         0.06
  205                         0.01      0.01      0.06      0.01         0.01
  208                         0.01      0.01      0.01    617.87         0.01
  209                         0.01      0.01      0.01    617.87         0.01
  218                         0.01      0.01   7656.13      0.01         0.01
  220                         0.01      0.01      0.01      2.32         0.01
  228                         0.01      0.01      0.01    209.79         0.01
  229                         0.01      0.01      0.01    195.54         0.01
  230                         0.01      0.01   7656.13      0.01         0.01
  231                      7656.13   7656.13   7656.13      0.07      3818.01
  232                         0.01      0.01      0.01      0.01         0.01
  234                         0.01      0.01      0.01      0.13         0.01
  235                         0.01      0.01      0.01      0.01         0.01
  236                         0.01      0.01      0.01      0.01         0.01
  237                         0.01      0.01      0.01     68.31         0.01
  246                         0.01      0.01      0.04      0.01         0.01
  251                         0.01      0.01      0.01     11.53         0.01
  265                         0.01      0.01      0.04      0.01         0.01
  266                         0.01      0.04      0.01    724.32         0.01
  267                         0.01      0.04      0.01    352.80         0.01
  282                         0.01      0.01      0.01    222.38         0.01
  284                         0.01      0.01      0.01    223.09         0.01
  286                         0.01      0.01      0.01    209.78         0.01
  287                         0.01      0.01      0.01    229.86         0.01
  288                         0.01      0.01      0.01    810.70         0.01
  289                         0.01      0.01      0.01    215.21         0.01
  290                         0.01      0.01      0.01    223.02         0.01
  296                         0.01      0.01   5857.48      0.01         0.01
  299                         0.01      0.01      0.01    229.09         0.01
  300                         0.01      0.01      0.01    223.02         0.01
  301                         0.01      0.01      0.01    222.50         0.01
  302                         0.01      0.01      0.01    229.58         0.01
  311                         0.01      0.01      0.01    232.41         0.01
  312                         0.01      0.01      0.01    229.57         0.01
  319                         0.01      0.01      0.01    441.68         0.01
  321                         0.01      0.01      0.01      0.01         0.01
  322                         0.01      0.01      0.01    107.25         0.01
  324                         0.01      0.01      0.01    852.06         0.01
  325                         0.01      0.01      0.01    705.35         0.01
  326                         0.01      0.01      0.01      2.98         0.01
  327                         0.01      0.01      0.01      0.01         0.01
  328                         0.01      0.01      0.01      0.01         0.01
  329                         0.01      0.01      0.01      0.01         0.01
  333                         0.01      0.01   5857.48      0.01         0.01
  337                         0.01      0.01      0.01      2.52         0.01
  339                         0.01      0.01      0.01      2.60         0.01
  341                         0.01      0.01      0.01      2.69         0.01
  343                         0.01      0.01   6600.96      0.01         0.01
  345                         0.01      0.01      0.01    152.29         0.01
  346                         0.01      0.01      0.01    302.93         0.01
  347                         0.01      0.01      0.01    546.78         0.01
  348                         0.01      0.01      0.01    148.35         0.01
  349                         0.01      0.01      0.01    328.69         0.01
  350                         0.01      0.01      0.01    341.51         0.01
  351                         0.01      0.01      0.01    498.18         0.01
  352                         0.01      0.01      0.01    413.46         0.01
  353                         0.01      0.01   7886.84      0.01         0.01
  354                         0.01      0.01      0.01    986.05         0.01
  355                         0.01      0.01      0.01     75.82         0.01
  356                         0.01      0.01   7886.84      0.01         0.01
  357                      7886.84   7886.84   7886.84   2272.52      3113.59
  358                         0.01      0.01      0.01      8.40         0.01
  359                         0.01      0.01      0.01    808.02         0.01
  364                         0.01      0.01   6600.96      0.01         0.01
  365                      5857.48   5857.48   6600.96      0.01         0.01
  366                         0.01      0.01      0.01      0.20         0.01
  368                         0.01      0.01   7611.82      0.01         0.01
  369                         0.01      0.01   7886.84      0.01         0.01
  370                         0.01      0.01   5829.26      0.01         0.01
  

  Analysis begun on:  Tue Apr 14 20:09:38 2020
  Analysis ended on:  Tue Apr 14 20:31:47 2020
  Total elapsed time: 00:22:09