
  EPA STORM WATER MANAGEMENT MODEL - VERSION 5.1 (Build 5.1.013)
  --------------------------------------------------------------

  Template input file for Gottesacker karst system.  
  Based on input files created by Zhao Chen. 
  Modified by Chloe Fandel: 
  
  WARNING 08: elevation drop exceeds length for Conduit 2
  WARNING 04: minimum elevation drop used for Conduit 3
  WARNING 04: minimum elevation drop used for Conduit 6
  WARNING 08: elevation drop exceeds length for Conduit 7
  WARNING 08: elevation drop exceeds length for Conduit 8
  WARNING 04: minimum elevation drop used for Conduit 15
  WARNING 04: minimum elevation drop used for Conduit 17
  WARNING 04: minimum elevation drop used for Conduit 18
  WARNING 04: minimum elevation drop used for Conduit 28
  
  *********************************************************
  NOTE: The summary statistics displayed in this report are
  based on results found at every computational time step,  
  not just on results from each reporting time step.
  *********************************************************
  
  ****************
  Analysis Options
  ****************
  Flow Units ............... LPS
  Process Models:
    Rainfall/Runoff ........ YES
    RDII ................... NO
    Snowmelt ............... NO
    Groundwater ............ NO
    Flow Routing ........... YES
    Ponding Allowed ........ NO
    Water Quality .......... NO
  Infiltration Method ...... HORTON
  Flow Routing Method ...... DYNWAVE
  Surcharge Method ......... EXTRAN
  Starting Date ............ 11/14/2013 00:00:00
  Ending Date .............. 10/11/2014 00:00:00
  Antecedent Dry Days ...... 0.0
  Report Time Step ......... 01:00:00
  Wet Time Step ............ 00:30:00
  Dry Time Step ............ 01:00:00
  Routing Time Step ........ 30.00 sec
  Variable Time Step ....... YES
  Maximum Trials ........... 8
  Number of Threads ........ 4
  Head Tolerance ........... 0.001524 m
  
  
  **************************        Volume         Depth
  Runoff Quantity Continuity     hectare-m            mm
  **************************     ---------       -------
  Total Precipitation ......      1876.070       691.193
  Evaporation Loss .........         0.000         0.000
  Infiltration Loss ........         0.000         0.000
  Surface Runoff ...........      1873.345       690.189
  Final Storage ............         3.029         1.116
  Continuity Error (%) .....        -0.016
  
  
  **************************        Volume        Volume
  Flow Routing Continuity        hectare-m      10^6 ltr
  **************************     ---------     ---------
  Dry Weather Inflow .......         0.000         0.000
  Wet Weather Inflow .......      1873.348     18733.679
  Groundwater Inflow .......         0.000         0.000
  RDII Inflow ..............         0.000         0.000
  External Inflow ..........         1.698        16.982
  External Outflow .........      4512.058     45121.046
  Flooding Loss ............         0.000         0.000
  Evaporation Loss .........         0.000         0.000
  Exfiltration Loss ........         0.000         0.000
  Initial Stored Volume ....         0.000         0.000
  Final Stored Volume ......         2.300        22.998
  Continuity Error (%) .....      -140.760
  
  
  *************************
  Highest Continuity Errors
  *************************
  Node 14 (-2650.96%)
  Node 16 (-2284.48%)
  Node 11 (-38.25%)
  Node 13 (-22.71%)
  Node 15 (-4.67%)
  
  
  ***************************
  Time-Step Critical Elements
  ***************************
  Link 18 (56.15%)
  Link 31 (42.84%)
  
  
  ********************************
  Highest Flow Instability Indexes
  ********************************
  Link 13 (130)
  Link 15 (117)
  Link 18 (116)
  Link 19 (109)
  Link 14 (90)
  
  
  *************************
  Routing Time Step Summary
  *************************
  Minimum Time Step           :     0.50 sec
  Average Time Step           :    10.44 sec
  Maximum Time Step           :    30.00 sec
  Percent in Steady State     :     0.30
  Average Iterations per Step :     7.15
  Percent Not Converging      :    83.22
  
  
  ***************************
  Subcatchment Runoff Summary
  ***************************
  
  ------------------------------------------------------------------------------------------------------------------------------
                            Total      Total      Total      Total     Imperv       Perv      Total       Total     Peak  Runoff
                           Precip      Runon       Evap      Infil     Runoff     Runoff     Runoff      Runoff   Runoff   Coeff
  Subcatchment                 mm         mm         mm         mm         mm         mm         mm    10^6 ltr      LPS
  ------------------------------------------------------------------------------------------------------------------------------
  S1                         0.00       0.00       0.00       0.00       0.00       0.00       0.00        0.00     0.00   0.000
  S2                         0.00       0.00       0.00       0.00       0.00       0.00       0.00        0.00     0.00   0.000
  S4                         0.00       0.00       0.00       0.00       0.00       0.00       0.00        0.00     0.00   0.000
  S7                         0.00       0.00       0.00       0.00       0.00       0.00       0.00        0.00     0.00   0.000
  S8                      1031.42       0.00       0.00       0.00    1032.06       0.00    1032.06       64.50    55.73   1.001
  S9                      1025.22       0.00       0.00       0.00    1025.31       0.00    1025.31      371.68   262.35   1.000
  S10                     1385.10       0.00       0.00       0.00    1385.52       0.00    1385.52      498.79   466.98   1.000
  S11                     1067.22       0.00       0.00       0.00    1067.43       0.00    1067.43      304.22   223.10   1.000
  S12                      986.20       0.00       0.00       0.00     986.34       0.00     986.34      367.42   312.39   1.000
  S13                     1095.88       0.00       0.00       0.00    1096.03       0.00    1096.03      482.26   414.04   1.000
  S14                      977.89       0.00       0.00       0.00     978.35       0.00     978.35      134.52   153.20   1.000
  S15                     1323.24       0.00       0.00       0.00    1324.30       0.00    1324.30      115.88   125.53   1.001
  S16                     1001.87       0.00       0.00       0.00    1002.10       0.00    1002.10      283.10   278.35   1.000
  S17                     1351.68       0.00       0.00       0.00    1352.75       0.00    1352.75      121.75   137.41   1.001
  S18                      973.25       0.00       0.00       0.00     974.33       0.00     974.33       29.23    35.76   1.001
  S19                     1574.01       0.00       0.00       0.00    1574.39       0.00    1574.39      625.82   478.24   1.000
  S20                     1292.86       0.00       0.00       0.00    1293.18       0.00    1293.18      484.95   498.34   1.000
  S21                     1129.79       0.00       0.00       0.00    1130.01       0.00    1130.01      449.18   373.16   1.000
  S22                     1148.78       0.00       0.00       0.00    1148.42       0.00    1148.42     1714.03  1002.50   1.000
  S23                      770.39       0.00       0.00       0.00     770.36       0.00     770.36      381.33   362.19   1.000
  S24                        0.00       0.00       0.00       0.00       0.00       0.00       0.00        0.00     0.00   0.000
  S25                      809.29       0.00       0.00       0.00     807.48       0.00     807.48    12090.03  4540.50   0.998
  S26                     1369.60       0.00       0.00       0.00    1371.06       0.00    1371.06       82.26    92.06   1.001
  S27                       22.11       0.00       0.00       0.00      21.88       0.00      21.88       81.55    15.50   0.989
  S28                     1359.91       0.00       0.00       0.00    1361.72       0.00    1361.72       51.06    60.01   1.001
  S29                        0.00       0.00       0.00       0.00       0.00       0.00       0.00        0.00     0.00   0.000
  S30                        0.00       0.00       0.00       0.00       0.00       0.00       0.00        0.00     0.00   0.000
  
  
  ******************
  Node Depth Summary
  ******************
  
  ---------------------------------------------------------------------------------
                                 Average  Maximum  Maximum  Time of Max    Reported
                                   Depth    Depth      HGL   Occurrence   Max Depth
  Node                 Type       Meters   Meters   Meters  days hr:min      Meters
  ---------------------------------------------------------------------------------
  0                    JUNCTION     0.00     0.00  1872.50     0  00:00        0.00
  1                    JUNCTION     0.00     0.00  1707.50     0  00:00        0.00
  2                    JUNCTION     0.00     0.00  1735.00     0  00:00        0.00
  3                    JUNCTION     0.00     0.00  1707.50     0  00:00        0.00
  4                    JUNCTION     0.00     0.00  1735.00     0  00:00        0.00
  5                    JUNCTION     0.00     0.00  1762.50     0  00:00        0.00
  6                    JUNCTION     0.00     0.00  1432.50     0  00:00        0.00
  7                    JUNCTION     0.01     0.07  1955.07   259  03:03        0.07
  8                    JUNCTION     0.02     0.12  1927.62   259  03:01        0.12
  9                    JUNCTION     0.03     0.16  1762.66   262  21:00        0.16
  10                   JUNCTION     0.04     0.20  1790.20   259  03:08        0.20
  11                   JUNCTION    38.08    55.04  1680.04   262  20:53       54.96
  12                   JUNCTION     0.03     0.18  1707.68   262  21:01        0.18
  13                   JUNCTION    10.64    27.52  1680.02   262  20:57       27.44
  14                   JUNCTION     0.00     0.04  1680.04   262  20:25        0.02
  15                   JUNCTION    10.64    27.51  1680.01   262  20:53       27.48
  16                   JUNCTION     0.00     0.02  1680.02   262  20:49        0.01
  17                   JUNCTION     0.28     0.43  1652.93   235  20:44        0.42
  18                   JUNCTION     0.04     0.22  1350.22   259  03:19        0.22
  19                   JUNCTION     0.03     0.18  1680.18   262  21:01        0.18
  20                   JUNCTION     0.33     0.58  1543.08   262  21:06        0.58
  21                   JUNCTION     0.34     0.68  1295.68   262  21:13        0.68
  22                   JUNCTION    55.78   128.59  1616.09   262  21:03      128.11
  23                   JUNCTION     0.02    46.09  1616.09   262  21:03       45.61
  24                   JUNCTION    17.61   191.74  1294.24   237  07:00      191.74
  25                   JUNCTION    13.64   160.67  1263.17   237  07:00      160.67
  26                   JUNCTION    17.65    21.83  1041.83   237  07:00       21.83
  27                   OUTFALL      0.30     1.00  1121.00   163  19:58        1.00
  28                   OUTFALL      0.37     0.78  1080.78   237  07:00        0.78
  29                   OUTFALL      0.37     0.55  1035.55   237  07:00        0.55
  
  
  *******************
  Node Inflow Summary
  *******************
  
  -------------------------------------------------------------------------------------------------
                                  Maximum  Maximum                  Lateral       Total        Flow
                                  Lateral    Total  Time of Max      Inflow      Inflow     Balance
                                   Inflow   Inflow   Occurrence      Volume      Volume       Error
  Node                 Type           LPS      LPS  days hr:min    10^6 ltr    10^6 ltr     Percent
  -------------------------------------------------------------------------------------------------
  0                    JUNCTION      0.00     0.00     0  00:00           0           0       0.000 ltr
  1                    JUNCTION      0.00     0.00     0  00:00           0           0       0.000 ltr
  2                    JUNCTION      0.00     0.00     0  00:00           0           0       0.000 ltr
  3                    JUNCTION      0.00     0.00     0  00:00           0           0       0.000 ltr
  4                    JUNCTION      0.00     0.00     0  00:00           0           0       0.000 ltr
  5                    JUNCTION      0.00     0.00     0  00:00           0           0       0.000 ltr
  6                    JUNCTION      0.00     0.00     0  00:00           0           0       0.000 ltr
  7                    JUNCTION     56.81    56.81   259  03:00        66.6        66.6      -0.092
  8                    JUNCTION    263.33   263.33   259  03:00         374         374       0.000
  9                    JUNCTION    467.05   467.05   262  21:00         499         499       0.000
  10                   JUNCTION    224.06   542.72   259  03:00         306         746       0.010
  11                   JUNCTION    312.84  2629.87     2  12:28         369    1.67e+03     -27.669
  12                   JUNCTION    414.39   414.39   262  21:00         484         484       0.000
  13                   JUNCTION    153.30 20967.14   249  02:58         135    2.01e+04     -18.508
  14                   JUNCTION    125.63   573.32   262  20:52         116         643     -96.365
  15                   JUNCTION    278.86  7111.73   235  20:38         285    2.78e+04      -4.466
  16                   JUNCTION    137.49   137.56   262  20:59         122         122     -95.806
  17                   JUNCTION     37.29  2564.63   262  20:53          31    2.92e+04      -0.001
  18                   JUNCTION    478.24   478.24   259  03:00         626         626      -0.002
  19                   JUNCTION    498.34   498.34   262  21:00         485         485      -0.000
  20                   JUNCTION    373.44  3786.14   262  21:00         450    3.05e+04      -0.001
  21                   JUNCTION   1002.84  5148.85   262  21:03    1.72e+03    3.28e+04      -0.014
  22                   JUNCTION    362.19   857.69   262  21:00         381         874       0.851
  23                   JUNCTION      0.00    94.89   262  18:57           0      0.0909       0.000
  24                   JUNCTION   4540.53  8992.27   237  07:06    1.21e+04    4.49e+04       0.014
  25                   JUNCTION     92.06  1844.19   237  06:59        82.3    1.21e+04       0.000
  26                   JUNCTION     15.50  1350.82   237  07:00        81.5    1.79e+04       0.005
  27                   OUTFALL      60.01  5883.43   237  07:00        51.1    1.51e+04       0.000
  28                   OUTFALL       0.00  1844.17   237  07:00           0    1.21e+04       0.000
  29                   OUTFALL       0.00  1350.82   237  07:00           0    1.79e+04       0.000
  
  
  **********************
  Node Surcharge Summary
  **********************
  
  Surcharging occurs when water rises above the top of the highest conduit.
  ---------------------------------------------------------------------
                                               Max. Height   Min. Depth
                                   Hours       Above Crown    Below Rim
  Node                 Type      Surcharged         Meters       Meters
  ---------------------------------------------------------------------
  11                   JUNCTION     7883.65         51.043        0.000
  13                   JUNCTION     3812.37         23.521        0.000
  15                   JUNCTION     3710.05         23.507        0.000
  22                   JUNCTION     7850.28        124.587        0.000
  23                   JUNCTION        5.48         45.091        0.000
  24                   JUNCTION     3043.55        187.744        0.000
  25                   JUNCTION     3126.23        159.674        0.000
  26                   JUNCTION     7880.99         20.831        0.000
  
  
  *********************
  Node Flooding Summary
  *********************
  
  No nodes were flooded.
  
  
  ***********************
  Outfall Loading Summary
  ***********************
  
  -----------------------------------------------------------
                         Flow       Avg       Max       Total
                         Freq      Flow      Flow      Volume
  Outfall Node           Pcnt       LPS       LPS    10^6 ltr
  -----------------------------------------------------------
  27                    80.60    939.83   5883.43   15062.862
  28                    99.74    521.65   1844.17   12141.323
  29                    99.71    683.15   1350.82   17916.654
  -----------------------------------------------------------
  System                93.35   2144.64   1350.82   45120.839
  
  
  ********************
  Link Flow Summary
  ********************
  
  -----------------------------------------------------------------------------
                                 Maximum  Time of Max   Maximum    Max/    Max/
                                  |Flow|   Occurrence   |Veloc|    Full    Full
  Link                 Type          LPS  days hr:min     m/sec    Flow   Depth
  -----------------------------------------------------------------------------
  0                    CONDUIT      0.00     0  00:00      0.00    0.00    0.00
  1                    CONDUIT      0.00     0  00:00      0.00    0.00    0.03
  2                    CONDUIT      0.00     0  00:00      0.00    0.00    0.00
  3                    CONDUIT      0.00     0  00:00      0.00    0.00    0.00
  4                    CONDUIT      0.00     0  00:00      0.00    0.00    0.03
  5                    CONDUIT    460.07   259  03:19      0.61    0.01    0.11
  6                    CONDUIT      0.00     0  00:00      0.00    0.00    0.00
  7                    CONDUIT      0.00     0  00:00      0.00    0.00    0.00
  8                    CONDUIT      0.00     0  00:00      0.00    0.00    0.00
  9                    CONDUIT     56.21   259  03:03      0.48    0.00    0.03
  10                   CONDUIT    262.91   259  03:01      1.58    0.00    0.04
  11                   CONDUIT    537.58   259  03:08      0.08    0.00    0.52
  12                   CONDUIT    465.75   262  21:00      0.07    0.00    0.52
  13                   CONDUIT   2629.17     2  12:28      6.09    0.04    1.00
  14                   CONDUIT  20962.95   249  02:58    >50.00    0.00    0.51
  15                   CONDUIT   5938.04   249  02:58      1.04   19.58    1.00
  16                   CONDUIT    448.85   262  20:52     38.75    0.00    0.03
  17                   CONDUIT      0.46   262  20:25      0.04    0.00    0.01
  18                   CONDUIT   2534.29   235  20:44      4.28  257.82    0.72
  19                   CONDUIT   3163.80   227  09:25     10.85    0.00    0.50
  20                   CONDUIT      1.03   262  20:53      0.01    0.00    0.22
  21                   CONDUIT   2587.14   235  20:47      4.10    0.02    0.12
  22                   CONDUIT   3777.25   262  21:06      3.23    0.05    0.16
  23                   CONDUIT    854.04   262  21:03      1.28    1.10    0.79
  24                   CONDUIT   5128.03   262  21:13      1.39    0.07    0.59
  25                   CONDUIT    496.03   262  21:01      0.07    0.00    0.52
  26                   CONDUIT     94.89   262  18:57      0.12    0.00    1.00
  27                   CONDUIT   1335.80   237  06:59      1.70    1.74    1.00
  28                   CONDUIT   1801.02   237  07:06      2.29  317.35    1.00
  29                   CONDUIT   5855.67   237  07:00      7.46    3.09    1.00
  30                   CONDUIT   1844.17   237  07:00      2.50    2.88    0.89
  31                   CONDUIT   1350.82   237  07:00      2.07    0.59    0.78
  
  
  ***************************
  Flow Classification Summary
  ***************************
  
  -------------------------------------------------------------------------------------
                      Adjusted    ---------- Fraction of Time in Flow Class ---------- 
                       /Actual         Up    Down  Sub   Sup   Up    Down  Norm  Inlet 
  Conduit               Length    Dry  Dry   Dry   Crit  Crit  Crit  Crit  Ltd   Ctrl  
  -------------------------------------------------------------------------------------
  0                       1.00   1.00  0.00  0.00  0.00  0.00  0.00  0.00  0.00  0.00
  1                       1.00   0.00  1.00  0.00  0.00  0.00  0.00  0.00  0.00  0.00
  2                       1.00   1.00  0.00  0.00  0.00  0.00  0.00  0.00  0.00  0.00
  3                       1.00   1.00  0.00  0.00  0.00  0.00  0.00  0.00  0.00  0.00
  4                       1.00   0.00  1.00  0.00  0.00  0.00  0.00  0.00  0.00  0.00
  5                       1.00   0.00  0.00  0.00  1.00  0.00  0.00  0.00  0.99  0.00
  6                       1.00   1.00  0.00  0.00  0.00  0.00  0.00  0.00  0.00  0.00
  7                       1.00   1.00  0.00  0.00  0.00  0.00  0.00  0.00  0.00  0.00
  8                       1.00   1.00  0.00  0.00  0.00  0.00  0.00  0.00  0.00  0.00
  9                       1.00   0.00  0.02  0.00  0.98  0.00  0.00  0.00  0.99  0.00
  10                      1.00   0.00  0.00  0.00  0.53  0.47  0.00  0.00  0.99  0.00
  11                      1.00   0.00  0.00  0.00  1.00  0.00  0.00  0.00  0.99  0.00
  12                      1.00   0.00  0.00  0.00  1.00  0.00  0.00  0.00  0.99  0.00
  13                      1.00   0.00  0.00  0.00  1.00  0.00  0.00  0.00  0.00  0.00
  14                      1.00   0.00  0.69  0.00  0.31  0.00  0.00  0.00  0.86  0.00
  15                      1.00   0.00  0.00  0.00  1.00  0.00  0.00  0.00  0.02  0.00
  16                      1.00   0.08  0.11  0.00  0.07  0.73  0.00  0.00  0.01  0.00
  17                      1.00   0.49  0.00  0.00  0.51  0.00  0.00  0.00  0.22  0.00
  18                      1.00   0.00  0.00  0.00  0.58  0.41  0.00  0.00  0.00  0.00
  19                      1.00   0.00  0.61  0.00  0.39  0.00  0.00  0.00  0.97  0.00
  20                      1.00   0.00  0.64  0.00  0.36  0.00  0.00  0.00  0.99  0.00
  21                      1.00   0.00  0.00  0.00  0.00  1.00  0.00  0.00  0.99  0.00
  22                      1.00   0.00  0.00  0.00  0.00  1.00  0.00  0.00  0.95  0.00
  23                      1.00   0.00  0.00  0.00  1.00  0.00  0.00  0.00  0.00  0.00
  24                      1.00   0.00  0.00  0.00  1.00  0.00  0.00  0.00  0.99  0.00
  25                      1.00   0.00  0.00  0.00  1.00  0.00  0.00  0.00  0.99  0.00
  26                      1.00   0.00  1.00  0.00  0.00  0.00  0.00  0.00  0.00  0.00
  27                      1.00   0.00  0.00  0.00  1.00  0.00  0.00  0.00  0.41  0.00
  28                      1.00   0.00  0.00  0.00  1.00  0.00  0.00  0.00  0.00  0.00
  29                      1.00   0.00  0.54  0.00  0.45  0.00  0.00  0.00  0.53  0.00
  30                      1.00   0.00  0.00  0.00  1.00  0.00  0.00  0.00  0.00  0.00
  31                      1.00   0.00  0.00  0.00  1.00  0.00  0.00  0.00  0.00  0.00
  
  
  *************************
  Conduit Surcharge Summary
  *************************
  
  ----------------------------------------------------------------------------
                                                           Hours        Hours 
                         --------- Hours Full --------   Above Full   Capacity
  Conduit                Both Ends  Upstream  Dnstream   Normal Flow   Limited
  ----------------------------------------------------------------------------
  11                          0.01      0.01   7883.65      0.01         0.01
  12                          0.01      0.01   7860.96      0.01         0.01
  13                       3699.97   3699.97   7883.65      0.01         0.01
  14                          0.01      0.01   3709.43      0.01         0.01
  15                       3683.73   3699.57   3700.44   5952.10      1259.72
  18                          0.01   6314.17      0.01   7885.52         0.01
  19                          0.01      0.01   3699.74      0.01         0.01
  23                          0.01      0.01   7874.82      1.26         0.01
  24                          0.01      0.01   3043.53      0.01         0.01
  25                          0.01      0.01   7850.28      0.01         0.01
  26                          5.48      5.48   1725.57      0.01         0.01
  27                       4504.29   4504.29   7880.99   2281.52      2515.14
  28                       3126.16   4504.29   3126.16   7882.43      3126.16
  29                        162.00    162.00   6969.39    894.06         0.01
  30                          0.01   3126.13      0.01   2851.45         0.01
  31                          0.01      0.01   7880.94      0.01         0.01
  

  Analysis begun on:  Wed Apr 15 04:04:40 2020
  Analysis ended on:  Wed Apr 15 04:08:31 2020
  Total elapsed time: 00:03:51