
  EPA STORM WATER MANAGEMENT MODEL - VERSION 5.1 (Build 5.1.013)
  --------------------------------------------------------------

  Template input file for Gottesacker karst system.  
  Based on input files created by Zhao Chen. 
  Modified by Chloe Fandel: 
  
  WARNING 04: minimum elevation drop used for Conduit 4
  WARNING 04: minimum elevation drop used for Conduit 5
  WARNING 04: minimum elevation drop used for Conduit 6
  WARNING 08: elevation drop exceeds length for Conduit 8
  WARNING 04: minimum elevation drop used for Conduit 30
  WARNING 04: minimum elevation drop used for Conduit 32
  WARNING 04: minimum elevation drop used for Conduit 33
  WARNING 04: minimum elevation drop used for Conduit 36
  
  *********************************************************
  NOTE: The summary statistics displayed in this report are
  based on results found at every computational time step,  
  not just on results from each reporting time step.
  *********************************************************
  
  ****************
  Analysis Options
  ****************
  Flow Units ............... LPS
  Process Models:
    Rainfall/Runoff ........ YES
    RDII ................... NO
    Snowmelt ............... NO
    Groundwater ............ NO
    Flow Routing ........... YES
    Ponding Allowed ........ NO
    Water Quality .......... NO
  Infiltration Method ...... HORTON
  Flow Routing Method ...... DYNWAVE
  Surcharge Method ......... EXTRAN
  Starting Date ............ 11/14/2013 00:00:00
  Ending Date .............. 10/11/2014 00:00:00
  Antecedent Dry Days ...... 0.0
  Report Time Step ......... 01:00:00
  Wet Time Step ............ 00:30:00
  Dry Time Step ............ 01:00:00
  Routing Time Step ........ 30.00 sec
  Variable Time Step ....... YES
  Maximum Trials ........... 8
  Number of Threads ........ 4
  Head Tolerance ........... 0.001524 m
  
  
  **************************        Volume         Depth
  Runoff Quantity Continuity     hectare-m            mm
  **************************     ---------       -------
  Total Precipitation ......      2396.180       761.417
  Evaporation Loss .........         0.000         0.000
  Infiltration Loss ........         0.000         0.000
  Surface Runoff ...........      2393.338       760.514
  Final Storage ............         3.240         1.030
  Continuity Error (%) .....        -0.017
  
  
  **************************        Volume        Volume
  Flow Routing Continuity        hectare-m      10^6 ltr
  **************************     ---------     ---------
  Dry Weather Inflow .......         0.000         0.000
  Wet Weather Inflow .......      2393.331     23933.556
  Groundwater Inflow .......         0.000         0.000
  RDII Inflow ..............         0.000         0.000
  External Inflow ..........         6.824        68.245
  External Outflow .........      7221.297     72213.721
  Flooding Loss ............       101.402      1014.034
  Evaporation Loss .........         0.000         0.000
  Exfiltration Loss ........         0.000         0.000
  Initial Stored Volume ....         0.000         0.000
  Final Stored Volume ......         1.972        19.717
  Continuity Error (%) .....      -205.175
  
  
  *************************
  Highest Continuity Errors
  *************************
  Node 34 (-81.00%)
  Node 32 (-46.42%)
  Node 11 (-44.93%)
  Node 35 (28.32%)
  Node 33 (22.42%)
  
  
  ***************************
  Time-Step Critical Elements
  ***************************
  Link 38 (10.24%)
  Link 40 (4.50%)
  Link 39 (1.42%)
  
  
  ********************************
  Highest Flow Instability Indexes
  ********************************
  Link 16 (106)
  Link 17 (100)
  Link 40 (86)
  Link 11 (53)
  Link 36 (44)
  
  
  *************************
  Routing Time Step Summary
  *************************
  Minimum Time Step           :     0.50 sec
  Average Time Step           :    28.61 sec
  Maximum Time Step           :    30.00 sec
  Percent in Steady State     :     0.30
  Average Iterations per Step :     7.34
  Percent Not Converging      :    82.51
  
  
  ***************************
  Subcatchment Runoff Summary
  ***************************
  
  ------------------------------------------------------------------------------------------------------------------------------
                            Total      Total      Total      Total     Imperv       Perv      Total       Total     Peak  Runoff
                           Precip      Runon       Evap      Infil     Runoff     Runoff     Runoff      Runoff   Runoff   Coeff
  Subcatchment                 mm         mm         mm         mm         mm         mm         mm    10^6 ltr      LPS
  ------------------------------------------------------------------------------------------------------------------------------
  S1                         0.00       0.00       0.00       0.00       0.00       0.00       0.00        0.00     0.00   0.000
  S2                         0.00       0.00       0.00       0.00       0.00       0.00       0.00        0.00     0.00   0.000
  S5                         0.00       0.00       0.00       0.00       0.00       0.00       0.00        0.00     0.00   0.000
  S6                         0.00       0.00       0.00       0.00       0.00       0.00       0.00        0.00     0.00   0.000
  S7                         0.00       0.00       0.00       0.00       0.00       0.00       0.00        0.00     0.00   0.000
  S8                         0.00       0.00       0.00       0.00       0.00       0.00       0.00        0.00     0.00   0.000
  S9                         0.00       0.00       0.00       0.00       0.00       0.00       0.00        0.00     0.00   0.000
  S10                        0.00       0.00       0.00       0.00       0.00       0.00       0.00        0.00     0.00   0.000
  S11                     1061.54       0.00       0.00       0.00    1061.69       0.00    1061.69      368.94   262.37   1.000
  S12                     1029.54       0.00       0.00       0.00    1030.00       0.00    1030.00      105.58    87.48   1.000
  S13                     1024.61       0.00       0.00       0.00    1024.82       0.00    1024.82      266.45   198.54   1.000
  S14                     1385.10       0.00       0.00       0.00    1385.52       0.00    1385.52      498.79   466.98   1.000
  S15                     1033.18       0.00       0.00       0.00    1033.25       0.00    1033.25      322.89   232.04   1.000
  S16                     1133.59       0.00       0.00       0.00    1133.83       0.00    1133.83      422.35   387.86   1.000
  S17                      984.28       0.00       0.00       0.00     984.37       0.00     984.37      433.13   350.20   1.000
  S18                      977.59       0.00       0.00       0.00     978.12       0.00     978.12       92.92    89.10   1.001
  S19                     1292.86       0.00       0.00       0.00    1293.18       0.00    1293.18      484.95   498.34   1.000
  S20                     1150.07       0.00       0.00       0.00    1149.95       0.00    1149.95     1129.83   806.26   1.000
  S21                      938.05       0.00       0.00       0.00     938.03       0.00     938.03      546.40   400.26   1.000
  S22                     1454.28       0.00       0.00       0.00    1454.49       0.00    1454.49      930.88   860.21   1.000
  S23                      770.39       0.00       0.00       0.00     770.36       0.00     770.36      381.33   362.19   1.000
  S24                        0.00       0.00       0.00       0.00       0.00       0.00       0.00        0.00     0.00   0.000
  S25                     1148.97       0.00       0.00       0.00    1149.08       0.00    1149.08      623.38   465.54   1.000
  S26                      117.59       0.00       0.00       0.00     117.38       0.00     117.38       85.98    35.47   0.998
  S27                        0.00       0.00       0.00       0.00       0.00       0.00       0.00        0.00     0.00   0.000
  S28                     1448.24       0.00       0.00       0.00    1448.37       0.00    1448.37     1086.28   895.81   1.000
  S29                     1111.13       0.00       0.00       0.00    1110.77       0.00    1110.77     1896.65  1119.61   1.000
  S30                        0.00       0.00       0.00       0.00       0.00       0.00       0.00        0.00     0.00   0.000
  S31                      921.61       0.00       0.00       0.00     919.72       0.00     919.72    13929.20  5384.29   0.998
  S32                     1362.10       0.00       0.00       0.00    1363.25       0.00    1363.25      132.92   143.90   1.001
  S33                        0.00       0.00       0.00       0.00       0.00       0.00       0.00        0.00     0.00   0.000
  S34                        0.00       0.00       0.00       0.00       0.00       0.00       0.00        0.00     0.00   0.000
  S35                        0.00       0.00       0.00       0.00       0.00       0.00       0.00        0.00     0.00   0.000
  S36                        0.00       0.00       0.00       0.00       0.00       0.00       0.00        0.00     0.00   0.000
  S37                     1365.11       0.00       0.00       0.00    1366.04       0.00    1366.04      194.66   201.10   1.001
  S38                        0.00       0.00       0.00       0.00       0.00       0.00       0.00        0.00     0.00   0.000
  S39                        0.00       0.00       0.00       0.00       0.00       0.00       0.00        0.00     0.00   0.000
  
  
  ******************
  Node Depth Summary
  ******************
  
  ---------------------------------------------------------------------------------
                                 Average  Maximum  Maximum  Time of Max    Reported
                                   Depth    Depth      HGL   Occurrence   Max Depth
  Node                 Type       Meters   Meters   Meters  days hr:min      Meters
  ---------------------------------------------------------------------------------
  0                    JUNCTION     0.00     0.00  1872.50     0  00:00        0.00
  1                    JUNCTION     0.00     0.00  1762.50     0  00:00        0.00
  2                    JUNCTION     0.00     0.00  1652.50     0  00:00        0.00
  3                    JUNCTION     0.00     0.00  1680.00     0  00:00        0.00
  4                    JUNCTION     0.00     0.00  1652.50     0  00:00        0.00
  5                    JUNCTION     0.00     0.00  1597.50     0  00:00        0.00
  6                    JUNCTION     0.00     0.00  1652.50     0  00:00        0.00
  7                    JUNCTION     0.00     0.00  1680.00     0  00:00        0.00
  8                    JUNCTION     0.00     0.00  1652.50     0  00:00        0.00
  9                    JUNCTION     0.00     0.00  1432.50     0  00:00        0.00
  10                   JUNCTION     0.02     0.14  1955.14   259  03:03        0.14
  11                   JUNCTION     0.28     1.38  1818.88   254  20:57        1.31
  12                   JUNCTION     0.00     0.04  1927.54   254  20:57        0.04
  13                   JUNCTION     0.03     0.19  1762.69   262  21:01        0.19
  14                   JUNCTION     0.02     0.14  1790.14   259  03:04        0.14
  15                   JUNCTION     0.02     0.16  1707.66   262  21:00        0.16
  16                   JUNCTION     0.05     0.33  1652.83   262  21:03        0.33
  17                   JUNCTION     0.23     1.16  1653.66   254  20:57        1.09
  18                   JUNCTION     0.02     0.18  1680.18   262  21:00        0.18
  19                   JUNCTION     0.05     0.29  1570.29   262  21:01        0.29
  20                   JUNCTION     0.23     1.12  1516.12   254  20:57        1.08
  21                   JUNCTION     0.07     0.42  1515.42   262  21:05        0.42
  22                   JUNCTION     0.03     0.25  1515.25   262  21:02        0.25
  23                   JUNCTION     0.00     0.00  1570.00     0  00:00        0.00
  24                   JUNCTION     0.26     1.29  1241.29   254  20:59        1.29
  25                   JUNCTION     0.04     0.29  1377.79   262  21:08        0.29
  26                   JUNCTION     0.00     0.00  1432.50     0  00:00        0.00
  27                   JUNCTION     0.08     0.47  1185.47   262  21:08        0.47
  28                   JUNCTION     0.18     3.58  1133.58    41  12:59        3.58
  29                   JUNCTION     0.37     5.62  1135.62    41  12:58        3.57
  30                   JUNCTION     0.38     1.70  1131.70   254  21:00        1.70
  31                   JUNCTION    17.77    21.88  1124.38   254  21:00       21.88
  32                   JUNCTION     0.10   204.00  1334.00    46  04:34       92.61
  33                   JUNCTION    16.01   204.00  1279.00    42  10:30       57.39
  34                   JUNCTION    15.99   204.00  1279.00    43  06:13       57.36
  35                   JUNCTION    13.28    47.41  1067.41    52  21:06       19.76
  36                   OUTFALL      0.29     1.52  1121.52   254  21:00        1.52
  37                   OUTFALL      0.40     1.00  1081.00    41  12:58        0.85
  38                   OUTFALL      0.03     2.50  1037.50    72  05:31        1.86
  
  
  *******************
  Node Inflow Summary
  *******************
  
  -------------------------------------------------------------------------------------------------
                                  Maximum  Maximum                  Lateral       Total        Flow
                                  Lateral    Total  Time of Max      Inflow      Inflow     Balance
                                   Inflow   Inflow   Occurrence      Volume      Volume       Error
  Node                 Type           LPS      LPS  days hr:min    10^6 ltr    10^6 ltr     Percent
  -------------------------------------------------------------------------------------------------
  0                    JUNCTION      0.00     0.00     0  00:00           0           0       0.000 ltr
  1                    JUNCTION      0.00     0.00     0  00:00           0           0       0.000 ltr
  2                    JUNCTION      0.00     0.00     0  00:00           0           0       0.000 ltr
  3                    JUNCTION      0.00     0.00     0  00:00           0           0       0.000 ltr
  4                    JUNCTION      0.00     0.00     0  00:00           0           0       0.000 ltr
  5                    JUNCTION      0.00     0.00     0  00:00           0           0       0.000 ltr
  6                    JUNCTION      0.00     0.00     0  00:00           0           0       0.000 ltr
  7                    JUNCTION      0.00     0.00     0  00:00           0           0       0.000 ltr
  8                    JUNCTION      0.00     0.00     0  00:00           0           0       0.000 ltr
  9                    JUNCTION      0.00     0.00     0  00:00           0           0       0.000 ltr
  10                   JUNCTION    263.34   263.34   259  03:00         371         371       0.018
  11                   JUNCTION     88.54 44628.61   227  19:00         108    2.85e+04     -31.002
  12                   JUNCTION    199.49   199.49   259  03:00         268         268       0.000
  13                   JUNCTION    467.05   467.05   262  21:00         499         499      -0.008
  14                   JUNCTION    233.11   233.11   259  03:00         325         325       0.000
  15                   JUNCTION    388.18   388.18   262  21:00         424         424       0.000
  16                   JUNCTION    350.65  1203.36   262  21:00         435    1.36e+03      -0.002
  17                   JUNCTION     89.60 24545.72   254  20:57        94.9    4.18e+04       0.109
  18                   JUNCTION    498.34   498.34   262  21:00         485         485      -0.006
  19                   JUNCTION    806.56   806.56   262  21:00    1.13e+03    1.13e+03       0.000
  20                   JUNCTION    400.74 24403.17   254  20:57         548    4.23e+04      -0.004
  21                   JUNCTION    860.21  2851.50   262  21:01         931    3.42e+03       0.002
  22                   JUNCTION    362.19   858.75   262  21:00         381         866      -0.005
  23                   JUNCTION      0.00     0.00     0  00:00           0           0       0.000 ltr
  24                   JUNCTION    465.82 24456.33   254  20:57         624    4.29e+04       0.001
  25                   JUNCTION     35.47   879.99   262  21:02          86         952       0.009
  26                   JUNCTION      0.00     0.00     0  00:00           0           0       0.000 ltr
  27                   JUNCTION    895.81  4588.06   262  21:04    1.09e+03    5.46e+03       0.001
  28                   JUNCTION   1120.03121022.52    74  09:02     1.9e+03    1.03e+04      -0.816
  29                   JUNCTION      0.00141085.37    91  21:11           0    6.03e+03       1.535
  30                   JUNCTION   5384.33 27612.10   254  20:59    1.39e+04     5.7e+04       0.010
  31                   JUNCTION    143.90 24910.02   254  21:00         133    5.36e+04       4.913
  32                   JUNCTION      0.001215614.51   134  05:05           0    4.49e+03     -31.703
  33                   JUNCTION      0.008225333.43   320  15:09           0    3.27e+04      28.907
  34                   JUNCTION      0.003555058.19    44  04:06           0    2.17e+04     -44.752
  35                   JUNCTION      0.00122215.15    91  21:11           0    3.98e+03      39.507
  36                   OUTFALL     201.10 25090.72   254  21:00         195    5.13e+04       0.000
  37                   OUTFALL       0.00 30057.87    56  20:03           0    1.81e+04       0.000
  38                   OUTFALL       0.00102992.06    72  05:31           0     2.9e+03       0.000
  
  
  **********************
  Node Surcharge Summary
  **********************
  
  Surcharging occurs when water rises above the top of the highest conduit.
  ---------------------------------------------------------------------
                                               Max. Height   Min. Depth
                                   Hours       Above Crown    Below Rim
  Node                 Type      Surcharged         Meters       Meters
  ---------------------------------------------------------------------
  29                   JUNCTION        0.01          1.623        0.000
  31                   JUNCTION     7876.87         17.883        0.000
  32                   JUNCTION        2.05        200.000        0.000
  33                   JUNCTION     6920.87        200.000        0.000
  34                   JUNCTION     6914.29        200.000        0.000
  35                   JUNCTION     6947.02         43.406        0.000
  
  
  *********************
  Node Flooding Summary
  *********************
  
  Flooding refers to all water that overflows a node, whether it ponds or not.
  --------------------------------------------------------------------------
                                                             Total   Maximum
                                 Maximum   Time of Max       Flood    Ponded
                        Hours       Rate    Occurrence      Volume     Depth
  Node                 Flooded       LPS   days hr:min    10^6 ltr    Meters
  --------------------------------------------------------------------------
  32                      0.41 642517.59    134  05:05     820.921   200.000
  33                      0.04 5829763.99     44  22:06     203.585   200.000
  34                      0.12 1992927.41     44  04:06     442.293   200.000
  
  
  ***********************
  Outfall Loading Summary
  ***********************
  
  -----------------------------------------------------------
                         Flow       Avg       Max       Total
                         Freq      Flow      Flow      Volume
  Outfall Node           Pcnt       LPS       LPS    10^6 ltr
  -----------------------------------------------------------
  36                    94.64   2032.10  25090.72   51315.378
  37                    87.55    785.61  30057.87   18051.685
  38                    87.66    496.08 102992.06    2903.095
  -----------------------------------------------------------
  System                89.95   3313.79 102992.06   72270.158
  
  
  ********************
  Link Flow Summary
  ********************
  
  -----------------------------------------------------------------------------
                                 Maximum  Time of Max   Maximum    Max/    Max/
                                  |Flow|   Occurrence   |Veloc|    Full    Full
  Link                 Type          LPS  days hr:min     m/sec    Flow   Depth
  -----------------------------------------------------------------------------
  0                    CONDUIT      0.00     0  00:00      0.00    0.00    0.00
  1                    CONDUIT      0.00     0  00:00      0.00    0.00    0.00
  2                    CONDUIT      0.00     0  00:00      0.00    0.00    0.00
  3                    CONDUIT      0.00     0  00:00      0.00    0.00    0.00
  4                    CONDUIT      0.00     0  00:00      0.00    0.00    0.00
  5                    CONDUIT      0.00     0  00:00      0.00    0.00    0.00
  6                    CONDUIT      0.00     0  00:00      0.00    0.00    0.00
  7                    CONDUIT      0.00     0  00:00      0.00    0.00    0.00
  8                    CONDUIT      0.00     0  00:00      0.00    0.00    0.00
  9                    CONDUIT      0.00     0  00:00      0.00    0.00    0.00
  10                   CONDUIT      0.00     0  00:00      0.00    0.00    0.14
  11                   CONDUIT  24097.56   254  20:57      8.21    0.18    0.28
  12                   CONDUIT  24067.70   254  20:57     26.49    0.18    0.30
  13                   CONDUIT      0.00     0  00:00      0.00    0.00    0.16
  14                   CONDUIT  23978.47   254  20:59      9.38    0.24    0.37
  15                   CONDUIT    262.10   259  03:03      0.45    0.00    0.20
  16                   CONDUIT  24275.50   254  20:57      6.68    0.28    0.33
  17                   CONDUIT  44354.22   227  19:00    >50.00    0.00    0.19
  18                   CONDUIT    231.74   259  03:04      0.50    0.00    0.16
  19                   CONDUIT    465.38   262  21:01      1.31    0.00    0.07
  20                   CONDUIT    387.87   262  21:00      1.22    0.00    0.06
  21                   CONDUIT   1193.81   262  21:03      2.00    0.01    0.09
  22                   CONDUIT    803.58   262  21:01      1.47    0.01    0.09
  23                   CONDUIT   2835.92   262  21:05      3.69    0.02    0.11
  24                   CONDUIT    496.93   262  21:00      1.87    0.00    0.05
  25                   CONDUIT    855.27   262  21:02      2.34    0.01    0.07
  26                   CONDUIT      0.00     0  00:00      0.00    0.00    0.03
  27                   CONDUIT    871.86   262  21:08      1.54    0.01    0.10
  28                   CONDUIT   4577.35   262  21:08      1.87    0.03    0.51
  29                   CONDUIT      0.00     0  00:00      0.00    0.00    0.04
  30                   CONDUIT  11735.47    41  13:00      4.37   50.68    0.52
  31                   CONDUIT  24781.65   254  21:00      4.20    0.39    0.71
  32                   CONDUIT  33551.06    41  12:58      4.89   94.38    0.90
  33                   CONDUIT 134294.78    91  21:11     18.02  786.38    0.93
  34                   CONDUIT 119653.70   205  21:37     11.17    1.71    0.95
  35                   CONDUIT 1407131.44   320  15:09    >50.00    8.04    1.00
  36                   CONDUIT 7163803.71   248  07:53    >50.00  11634.47    1.00
  37                   CONDUIT 122215.15    91  21:11      9.73    1.74    1.00
  38                   CONDUIT  24910.09   254  21:00      2.69    0.31    0.69
  39                   CONDUIT  30057.87    56  20:03    >50.00   46.56    1.00
  40                   CONDUIT 102992.06    72  05:31     16.39    0.71    0.81
  
  
  ***************************
  Flow Classification Summary
  ***************************
  
  -------------------------------------------------------------------------------------
                      Adjusted    ---------- Fraction of Time in Flow Class ---------- 
                       /Actual         Up    Down  Sub   Sup   Up    Down  Norm  Inlet 
  Conduit               Length    Dry  Dry   Dry   Crit  Crit  Crit  Crit  Ltd   Ctrl  
  -------------------------------------------------------------------------------------
  0                       1.00   1.00  0.00  0.00  0.00  0.00  0.00  0.00  0.00  0.00
  1                       1.00   1.00  0.00  0.00  0.00  0.00  0.00  0.00  0.00  0.00
  2                       1.00   1.00  0.00  0.00  0.00  0.00  0.00  0.00  0.00  0.00
  3                       1.00   1.00  0.00  0.00  0.00  0.00  0.00  0.00  0.00  0.00
  4                       1.00   1.00  0.00  0.00  0.00  0.00  0.00  0.00  0.00  0.00
  5                       1.00   1.00  0.00  0.00  0.00  0.00  0.00  0.00  0.00  0.00
  6                       1.00   1.00  0.00  0.00  0.00  0.00  0.00  0.00  0.00  0.00
  7                       1.00   1.00  0.00  0.00  0.00  0.00  0.00  0.00  0.00  0.00
  8                       1.00   1.00  0.00  0.00  0.00  0.00  0.00  0.00  0.00  0.00
  9                       1.00   1.00  0.00  0.00  0.00  0.00  0.00  0.00  0.00  0.00
  10                      1.00   0.00  0.99  0.00  0.00  0.00  0.00  0.00  0.00  0.00
  11                      1.00   0.00  0.00  0.00  0.00  0.99  0.00  0.00  0.01  0.00
  12                      1.00   0.00  0.00  0.00  0.00  0.99  0.00  0.00  0.99  0.00
  13                      1.00   0.00  0.99  0.00  0.00  0.00  0.00  0.00  0.00  0.00
  14                      1.00   0.00  0.00  0.00  0.12  0.87  0.00  0.00  0.99  0.00
  15                      1.00   0.00  0.00  0.00  0.99  0.00  0.00  0.00  0.99  0.00
  16                      1.00   0.00  0.00  0.00  0.00  0.99  0.00  0.00  0.05  0.00
  17                      1.00   0.00  0.64  0.00  0.36  0.00  0.00  0.00  0.99  0.00
  18                      1.00   0.00  0.00  0.00  0.99  0.00  0.00  0.00  0.99  0.00
  19                      1.00   0.00  0.00  0.00  0.99  0.00  0.00  0.00  0.99  0.00
  20                      1.00   0.00  0.04  0.00  0.96  0.00  0.00  0.00  0.99  0.00
  21                      1.00   0.00  0.00  0.00  0.79  0.20  0.00  0.00  0.99  0.00
  22                      1.00   0.00  0.00  0.00  0.99  0.01  0.00  0.00  0.99  0.00
  23                      1.00   0.00  0.00  0.00  0.13  0.86  0.00  0.00  0.99  0.00
  24                      1.00   0.01  0.01  0.00  0.65  0.33  0.00  0.00  0.98  0.00
  25                      1.00   0.00  0.00  0.00  0.54  0.46  0.00  0.00  0.98  0.00
  26                      1.00   0.01  0.99  0.00  0.00  0.00  0.00  0.00  0.00  0.00
  27                      1.00   0.00  0.00  0.00  0.98  0.01  0.00  0.00  0.98  0.00
  28                      1.00   0.00  0.00  0.00  0.99  0.00  0.00  0.00  0.99  0.00
  29                      1.00   0.00  0.99  0.00  0.00  0.00  0.00  0.00  0.00  0.00
  30                      1.00   0.00  0.00  0.00  0.99  0.00  0.00  0.00  0.00  0.00
  31                      1.00   0.00  0.00  0.00  0.99  0.00  0.00  0.00  0.99  0.00
  32                      1.00   0.00  0.00  0.00  0.99  0.00  0.00  0.00  0.00  0.00
  33                      1.00   0.00  0.00  0.00  0.99  0.00  0.00  0.00  0.00  0.00
  34                      1.00   0.00  0.00  0.00  0.99  0.00  0.00  0.00  0.97  0.00
  35                      1.00   0.00  0.00  0.00  0.99  0.00  0.00  0.00  0.96  0.00
  36                      1.00   0.00  0.00  0.00  0.99  0.00  0.00  0.00  0.00  0.00
  37                      1.00   0.00  0.00  0.00  0.99  0.00  0.00  0.00  0.99  0.00
  38                      1.00   0.00  0.00  0.00  0.99  0.00  0.00  0.00  0.41  0.00
  39                      1.00   0.00  0.12  0.00  0.88  0.00  0.00  0.00  0.00  0.00
  40                      1.00   0.00  0.11  0.00  0.88  0.00  0.00  0.00  0.54  0.00
  
  
  *************************
  Conduit Surcharge Summary
  *************************
  
  ----------------------------------------------------------------------------
                                                           Hours        Hours 
                         --------- Hours Full --------   Above Full   Capacity
  Conduit                Both Ends  Upstream  Dnstream   Normal Flow   Limited
  ----------------------------------------------------------------------------
  28                          0.01      0.01      0.01      0.01         0.01
  30                          0.01      0.01      0.01   1283.58         0.01
  31                          0.01      0.01   7876.87      0.01         0.01
  32                          0.01      0.01      0.01    985.53         0.01
  33                          0.01      0.01      1.87    686.47         0.01
  34                          0.01      0.01   6919.40      0.42         0.01
  35                          1.81      1.87   6919.40      1.45         1.60
  36                       6911.40   6919.40   6912.16   2521.91      2529.47
  37                          1.85      1.87   6947.01      2.55         1.67
  38                          0.01      0.01   7875.31      0.01         0.01
  39                          0.70      2.63   6938.89   2935.28         0.01
  40                          0.01      0.01   6947.01      0.01         0.01
  

  Analysis begun on:  Tue Apr 14 21:21:22 2020
  Analysis ended on:  Tue Apr 14 21:23:26 2020
  Total elapsed time: 00:02:04