
  EPA STORM WATER MANAGEMENT MODEL - VERSION 5.1 (Build 5.1.013)
  --------------------------------------------------------------

  Template input file for Gottesacker karst system.  
  Based on input files created by Zhao Chen. 
  Modified by Chloe Fandel: 
  
  WARNING 08: elevation drop exceeds length for Conduit 2
  WARNING 04: minimum elevation drop used for Conduit 3
  WARNING 04: minimum elevation drop used for Conduit 6
  WARNING 08: elevation drop exceeds length for Conduit 7
  WARNING 08: elevation drop exceeds length for Conduit 8
  WARNING 04: minimum elevation drop used for Conduit 15
  WARNING 04: minimum elevation drop used for Conduit 17
  WARNING 04: minimum elevation drop used for Conduit 18
  WARNING 04: minimum elevation drop used for Conduit 28
  
  *********************************************************
  NOTE: The summary statistics displayed in this report are
  based on results found at every computational time step,  
  not just on results from each reporting time step.
  *********************************************************
  
  ****************
  Analysis Options
  ****************
  Flow Units ............... LPS
  Process Models:
    Rainfall/Runoff ........ YES
    RDII ................... NO
    Snowmelt ............... NO
    Groundwater ............ NO
    Flow Routing ........... YES
    Ponding Allowed ........ NO
    Water Quality .......... NO
  Infiltration Method ...... HORTON
  Flow Routing Method ...... DYNWAVE
  Surcharge Method ......... EXTRAN
  Starting Date ............ 11/14/2013 00:00:00
  Ending Date .............. 10/11/2014 00:00:00
  Antecedent Dry Days ...... 0.0
  Report Time Step ......... 01:00:00
  Wet Time Step ............ 00:30:00
  Dry Time Step ............ 01:00:00
  Routing Time Step ........ 30.00 sec
  Variable Time Step ....... YES
  Maximum Trials ........... 8
  Number of Threads ........ 4
  Head Tolerance ........... 0.001524 m
  
  
  **************************        Volume         Depth
  Runoff Quantity Continuity     hectare-m            mm
  **************************     ---------       -------
  Total Precipitation ......      1876.070       691.193
  Evaporation Loss .........         0.000         0.000
  Infiltration Loss ........         0.000         0.000
  Surface Runoff ...........      1873.345       690.189
  Final Storage ............         3.029         1.116
  Continuity Error (%) .....        -0.016
  
  
  **************************        Volume        Volume
  Flow Routing Continuity        hectare-m      10^6 ltr
  **************************     ---------     ---------
  Dry Weather Inflow .......         0.000         0.000
  Wet Weather Inflow .......      1873.341     18733.605
  Groundwater Inflow .......         0.000         0.000
  RDII Inflow ..............         0.000         0.000
  External Inflow ..........         1.719        17.188
  External Outflow .........      6188.165     61882.298
  Flooding Loss ............         0.000         0.000
  Evaporation Loss .........         0.000         0.000
  Exfiltration Loss ........         0.000         0.000
  Initial Stored Volume ....         0.000         0.000
  Final Stored Volume ......         4.551        45.512
  Continuity Error (%) .....      -230.268
  
  
  *************************
  Highest Continuity Errors
  *************************
  Node 16 (-2587.04%)
  Node 14 (-2144.74%)
  Node 13 (-179.70%)
  Node 11 (-29.23%)
  Node 26 (10.95%)
  
  
  ***************************
  Time-Step Critical Elements
  ***************************
  Link 31 (84.73%)
  Link 18 (14.90%)
  
  
  ********************************
  Highest Flow Instability Indexes
  ********************************
  Link 13 (118)
  Link 18 (116)
  Link 15 (105)
  Link 19 (102)
  Link 16 (47)
  
  
  *************************
  Routing Time Step Summary
  *************************
  Minimum Time Step           :     0.50 sec
  Average Time Step           :    11.34 sec
  Maximum Time Step           :    30.00 sec
  Percent in Steady State     :     0.30
  Average Iterations per Step :     7.84
  Percent Not Converging      :    96.85
  
  
  ***************************
  Subcatchment Runoff Summary
  ***************************
  
  ------------------------------------------------------------------------------------------------------------------------------
                            Total      Total      Total      Total     Imperv       Perv      Total       Total     Peak  Runoff
                           Precip      Runon       Evap      Infil     Runoff     Runoff     Runoff      Runoff   Runoff   Coeff
  Subcatchment                 mm         mm         mm         mm         mm         mm         mm    10^6 ltr      LPS
  ------------------------------------------------------------------------------------------------------------------------------
  S1                         0.00       0.00       0.00       0.00       0.00       0.00       0.00        0.00     0.00   0.000
  S2                         0.00       0.00       0.00       0.00       0.00       0.00       0.00        0.00     0.00   0.000
  S4                         0.00       0.00       0.00       0.00       0.00       0.00       0.00        0.00     0.00   0.000
  S7                         0.00       0.00       0.00       0.00       0.00       0.00       0.00        0.00     0.00   0.000
  S8                      1031.42       0.00       0.00       0.00    1032.06       0.00    1032.06       64.50    55.73   1.001
  S9                      1025.22       0.00       0.00       0.00    1025.31       0.00    1025.31      371.68   262.35   1.000
  S10                     1385.10       0.00       0.00       0.00    1385.52       0.00    1385.52      498.79   466.98   1.000
  S11                     1067.22       0.00       0.00       0.00    1067.43       0.00    1067.43      304.22   223.10   1.000
  S12                      986.20       0.00       0.00       0.00     986.34       0.00     986.34      367.42   312.39   1.000
  S13                     1095.88       0.00       0.00       0.00    1096.03       0.00    1096.03      482.26   414.04   1.000
  S14                      977.89       0.00       0.00       0.00     978.35       0.00     978.35      134.52   153.20   1.000
  S15                     1323.24       0.00       0.00       0.00    1324.30       0.00    1324.30      115.88   125.53   1.001
  S16                     1001.87       0.00       0.00       0.00    1002.10       0.00    1002.10      283.10   278.35   1.000
  S17                     1351.68       0.00       0.00       0.00    1352.75       0.00    1352.75      121.75   137.41   1.001
  S18                      973.25       0.00       0.00       0.00     974.33       0.00     974.33       29.23    35.76   1.001
  S19                     1574.01       0.00       0.00       0.00    1574.39       0.00    1574.39      625.82   478.24   1.000
  S20                     1292.86       0.00       0.00       0.00    1293.18       0.00    1293.18      484.95   498.34   1.000
  S21                     1129.79       0.00       0.00       0.00    1130.01       0.00    1130.01      449.18   373.16   1.000
  S22                     1148.78       0.00       0.00       0.00    1148.42       0.00    1148.42     1714.03  1002.50   1.000
  S23                      770.39       0.00       0.00       0.00     770.36       0.00     770.36      381.33   362.19   1.000
  S24                        0.00       0.00       0.00       0.00       0.00       0.00       0.00        0.00     0.00   0.000
  S25                      809.29       0.00       0.00       0.00     807.48       0.00     807.48    12090.03  4540.50   0.998
  S26                     1369.60       0.00       0.00       0.00    1371.06       0.00    1371.06       82.26    92.06   1.001
  S27                       22.11       0.00       0.00       0.00      21.88       0.00      21.88       81.55    15.50   0.989
  S28                     1359.91       0.00       0.00       0.00    1361.72       0.00    1361.72       51.06    60.01   1.001
  S29                        0.00       0.00       0.00       0.00       0.00       0.00       0.00        0.00     0.00   0.000
  S30                        0.00       0.00       0.00       0.00       0.00       0.00       0.00        0.00     0.00   0.000
  
  
  ******************
  Node Depth Summary
  ******************
  
  ---------------------------------------------------------------------------------
                                 Average  Maximum  Maximum  Time of Max    Reported
                                   Depth    Depth      HGL   Occurrence   Max Depth
  Node                 Type       Meters   Meters   Meters  days hr:min      Meters
  ---------------------------------------------------------------------------------
  0                    JUNCTION     0.00     0.00  1872.50     0  00:00        0.00
  1                    JUNCTION     0.00     0.00  1707.50     0  00:00        0.00
  2                    JUNCTION     0.00     0.00  1735.00     0  00:00        0.00
  3                    JUNCTION     0.00     0.00  1707.50     0  00:00        0.00
  4                    JUNCTION     0.00     0.00  1735.00     0  00:00        0.00
  5                    JUNCTION     0.00     0.00  1762.50     0  00:00        0.00
  6                    JUNCTION     0.00     0.00  1432.50     0  00:00        0.00
  7                    JUNCTION     0.01     0.07  1955.07   259  03:03        0.07
  8                    JUNCTION     0.02     0.12  1927.62   259  03:01        0.12
  9                    JUNCTION     0.03     0.16  1762.66   262  21:00        0.16
  10                   JUNCTION     0.04     0.20  1790.20   259  03:08        0.20
  11                   JUNCTION    28.67    31.98  1656.98   293  20:21       31.62
  12                   JUNCTION     0.03     0.18  1707.68   262  21:00        0.18
  13                   JUNCTION     1.25     4.04  1656.54   293  20:21        4.00
  14                   JUNCTION     0.01     0.07  1680.07   262  21:00        0.07
  15                   JUNCTION     0.95     2.47  1654.97   262  21:00        2.47
  16                   JUNCTION     0.00     0.00  1680.00   300  13:00        0.00
  17                   JUNCTION     0.35     1.25  1653.75   262  21:00        1.25
  18                   JUNCTION     0.04     0.22  1350.22   259  03:20        0.22
  19                   JUNCTION     0.03     0.18  1680.18   262  21:01        0.18
  20                   JUNCTION     0.41     1.51  1544.01   262  21:01        1.51
  21                   JUNCTION     0.42     1.58  1296.58   262  21:05        1.58
  22                   JUNCTION    55.19    56.54  1544.04   262  21:00       56.54
  23                   JUNCTION     0.00     0.00  1570.00     0  00:00        0.00
  24                   JUNCTION     0.55     1.94  1104.44   259  03:16        1.93
  25                   JUNCTION     0.24     1.00  1103.50   259  03:17        1.00
  26                   JUNCTION    15.34    17.57  1037.57   259  03:16       17.56
  27                   OUTFALL      0.00     0.00  1120.00     0  00:00        0.00
  28                   OUTFALL      0.18     0.92  1080.92   259  03:17        0.92
  29                   OUTFALL      0.30     1.10  1036.10   259  03:16        1.10
  
  
  *******************
  Node Inflow Summary
  *******************
  
  -------------------------------------------------------------------------------------------------
                                  Maximum  Maximum                  Lateral       Total        Flow
                                  Lateral    Total  Time of Max      Inflow      Inflow     Balance
                                   Inflow   Inflow   Occurrence      Volume      Volume       Error
  Node                 Type           LPS      LPS  days hr:min    10^6 ltr    10^6 ltr     Percent
  -------------------------------------------------------------------------------------------------
  0                    JUNCTION      0.00     0.00     0  00:00           0           0       0.000 ltr
  1                    JUNCTION      0.00     0.00     0  00:00           0           0       0.000 ltr
  2                    JUNCTION      0.00     0.00     0  00:00           0           0       0.000 ltr
  3                    JUNCTION      0.00     0.00     0  00:00           0           0       0.000 ltr
  4                    JUNCTION      0.00     0.00     0  00:00           0           0       0.000 ltr
  5                    JUNCTION      0.00     0.00     0  00:00           0           0       0.000 ltr
  6                    JUNCTION      0.00     0.00     0  00:00           0           0       0.000 ltr
  7                    JUNCTION     56.81    56.81   259  03:00        66.6        66.6      -0.091
  8                    JUNCTION    263.33   263.33   259  03:00         374         374       0.000
  9                    JUNCTION    467.05   467.05   262  21:00         499         499       0.000
  10                   JUNCTION    224.06   542.72   259  03:00         306         746       0.010
  11                   JUNCTION    312.84  2578.61     2  12:29         369    1.63e+03     -22.621
  12                   JUNCTION    414.38   414.38   262  21:00         484         484       0.000
  13                   JUNCTION    153.30162212.32   293  20:21         135    1.76e+04     -64.247
  14                   JUNCTION    125.63   523.36   262  21:00         116         682     -95.545
  15                   JUNCTION    278.86 25659.53   262  19:00         285    5.26e+04       0.257
  16                   JUNCTION    137.49   137.49   262  21:00         122         122     -96.278
  17                   JUNCTION     37.29 23877.52   262  21:00          31    5.25e+04      -0.008
  18                   JUNCTION    478.24   478.24   259  03:00         626         626       0.014
  19                   JUNCTION    498.34   498.34   262  21:00         485         485       0.000
  20                   JUNCTION    373.44 25089.32   262  21:00         450    5.39e+04      -0.001
  21                   JUNCTION   1002.84 26450.75   262  21:01    1.72e+03    5.62e+04       0.004
  22                   JUNCTION    362.19   857.71   262  21:00         381         884       2.004
  23                   JUNCTION      0.00     0.00     0  00:00           0           0       0.000 ltr
  24                   JUNCTION   4540.53 29387.09   259  03:10    1.21e+04    6.83e+04       0.006
  25                   JUNCTION     92.06  5545.70   259  03:14        82.3    8.07e+03       0.002
  26                   JUNCTION     15.50 23918.74   259  03:16        81.5    6.04e+04      12.292
  27                   OUTFALL      60.01    60.01   259  03:00        51.1        51.1       0.000
  28                   OUTFALL       0.00  5544.53   259  03:17           0    8.07e+03       0.000
  29                   OUTFALL       0.00 23918.74   259  03:16           0    5.38e+04       0.000
  
  
  **********************
  Node Surcharge Summary
  **********************
  
  Surcharging occurs when water rises above the top of the highest conduit.
  ---------------------------------------------------------------------
                                               Max. Height   Min. Depth
                                   Hours       Above Crown    Below Rim
  Node                 Type      Surcharged         Meters       Meters
  ---------------------------------------------------------------------
  11                   JUNCTION     7883.62         27.979        0.000
  13                   JUNCTION       17.93          0.036        0.000
  22                   JUNCTION     7869.55         52.536        0.000
  26                   JUNCTION     7873.59         13.575        0.000
  
  
  *********************
  Node Flooding Summary
  *********************
  
  No nodes were flooded.
  
  
  ***********************
  Outfall Loading Summary
  ***********************
  
  -----------------------------------------------------------
                         Flow       Avg       Max       Total
                         Freq      Flow      Flow      Volume
  Outfall Node           Pcnt       LPS       LPS    10^6 ltr
  -----------------------------------------------------------
  27                    80.91      3.00     60.01      51.063
  28                    99.72    361.06   5544.53    8073.987
  29                    99.64   2415.21  23918.74   53757.171
  -----------------------------------------------------------
  System                93.42   2779.26  23918.74   61882.221
  
  
  ********************
  Link Flow Summary
  ********************
  
  -----------------------------------------------------------------------------
                                 Maximum  Time of Max   Maximum    Max/    Max/
                                  |Flow|   Occurrence   |Veloc|    Full    Full
  Link                 Type          LPS  days hr:min     m/sec    Flow   Depth
  -----------------------------------------------------------------------------
  0                    CONDUIT      0.00     0  00:00      0.00    0.00    0.00
  1                    CONDUIT      0.00     0  00:00      0.00    0.00    0.03
  2                    CONDUIT      0.00     0  00:00      0.00    0.00    0.00
  3                    CONDUIT      0.00     0  00:00      0.00    0.00    0.00
  4                    CONDUIT      0.00     0  00:00      0.00    0.00    0.03
  5                    CONDUIT    459.64   259  03:20      0.57    0.01    0.22
  6                    CONDUIT      0.00     0  00:00      0.00    0.00    0.00
  7                    CONDUIT      0.00     0  00:00      0.00    0.00    0.00
  8                    CONDUIT      0.00     0  00:00      0.00    0.00    0.00
  9                    CONDUIT     56.21   259  03:03      0.48    0.00    0.03
  10                   CONDUIT    262.90   259  03:01      1.58    0.00    0.04
  11                   CONDUIT    537.58   259  03:08      0.08    0.00    0.52
  12                   CONDUIT    465.75   262  21:00      0.07    0.00    0.52
  13                   CONDUIT   2577.90     2  12:29      6.23    0.04    1.00
  14                   CONDUIT 162212.02   293  20:21    >50.00    0.00    0.50
  15                   CONDUIT  23956.57   293  20:21      2.77   79.00    0.81
  16                   CONDUIT    397.75   262  21:00    >50.00    0.00    0.02
  17                   CONDUIT      1.48   293  20:21      0.06    0.00    0.01
  18                   CONDUIT  23844.53   262  21:00      4.53   38.73    0.46
  19                   CONDUIT   3389.89   239  06:00      5.50    0.00    0.31
  20                   CONDUIT      0.90   239  06:00      0.00    0.00    0.16
  21                   CONDUIT  23858.21   262  21:00      8.81    0.22    0.34
  22                   CONDUIT  25076.14   262  21:02      5.73    0.32    0.39
  23                   CONDUIT    857.93   262  21:00      0.78    0.02    0.69
  24                   CONDUIT  26431.92   262  21:05      5.07    0.34    0.44
  25                   CONDUIT    496.06   262  21:01      0.07    0.00    0.52
  26                   CONDUIT      0.00     0  00:00      0.00    0.00    0.50
  27                   CONDUIT  23904.16   259  03:16      2.39    0.50    0.74
  28                   CONDUIT   5462.95   259  03:16      1.30   15.37    0.37
  29                   CONDUIT      0.00     0  00:00      0.00    0.00    0.50
  30                   CONDUIT   5544.53   259  03:17      2.39    0.14    0.24
  31                   CONDUIT  23918.74   259  03:16      2.83    0.17    0.64
  
  
  ***************************
  Flow Classification Summary
  ***************************
  
  -------------------------------------------------------------------------------------
                      Adjusted    ---------- Fraction of Time in Flow Class ---------- 
                       /Actual         Up    Down  Sub   Sup   Up    Down  Norm  Inlet 
  Conduit               Length    Dry  Dry   Dry   Crit  Crit  Crit  Crit  Ltd   Ctrl  
  -------------------------------------------------------------------------------------
  0                       1.00   1.00  0.00  0.00  0.00  0.00  0.00  0.00  0.00  0.00
  1                       1.00   0.00  1.00  0.00  0.00  0.00  0.00  0.00  0.00  0.00
  2                       1.00   1.00  0.00  0.00  0.00  0.00  0.00  0.00  0.00  0.00
  3                       1.00   1.00  0.00  0.00  0.00  0.00  0.00  0.00  0.00  0.00
  4                       1.00   0.00  1.00  0.00  0.00  0.00  0.00  0.00  0.00  0.00
  5                       1.00   0.00  0.00  0.00  1.00  0.00  0.00  0.00  0.99  0.00
  6                       1.00   1.00  0.00  0.00  0.00  0.00  0.00  0.00  0.00  0.00
  7                       1.00   1.00  0.00  0.00  0.00  0.00  0.00  0.00  0.00  0.00
  8                       1.00   1.00  0.00  0.00  0.00  0.00  0.00  0.00  0.00  0.00
  9                       1.00   0.00  0.02  0.00  0.98  0.00  0.00  0.00  0.99  0.00
  10                      1.00   0.00  0.01  0.00  0.53  0.45  0.00  0.00  0.99  0.00
  11                      1.00   0.00  0.00  0.00  1.00  0.00  0.00  0.00  0.99  0.00
  12                      1.00   0.00  0.00  0.00  1.00  0.00  0.00  0.00  0.99  0.00
  13                      1.00   0.00  0.00  0.00  1.00  0.00  0.00  0.00  0.00  0.00
  14                      1.00   0.00  0.87  0.00  0.13  0.00  0.00  0.00  0.99  0.00
  15                      1.00   0.00  0.00  0.00  1.00  0.00  0.00  0.00  0.00  0.00
  16                      1.00   0.16  0.10  0.00  0.12  0.62  0.00  0.00  0.00  0.00
  17                      1.00   0.66  0.00  0.00  0.34  0.01  0.00  0.00  0.22  0.00
  18                      1.00   0.00  0.00  0.00  0.95  0.04  0.00  0.00  0.00  0.00
  19                      1.00   0.00  0.61  0.00  0.39  0.00  0.00  0.00  0.99  0.00
  20                      1.00   0.00  0.66  0.00  0.34  0.00  0.00  0.00  0.99  0.00
  21                      1.00   0.00  0.00  0.00  0.00  1.00  0.00  0.00  0.99  0.00
  22                      1.00   0.00  0.00  0.00  0.00  1.00  0.00  0.00  0.94  0.00
  23                      1.00   0.00  0.00  0.00  1.00  0.00  0.00  0.00  0.00  0.00
  24                      1.00   0.00  0.00  0.00  0.17  0.82  0.00  0.00  0.99  0.00
  25                      1.00   0.00  0.00  0.00  1.00  0.00  0.00  0.00  0.99  0.00
  26                      1.00   0.00  1.00  0.00  0.00  0.00  0.00  0.00  0.00  0.00
  27                      1.00   0.00  0.00  0.00  1.00  0.00  0.00  0.00  0.99  0.00
  28                      1.00   0.00  0.00  0.00  1.00  0.00  0.00  0.00  0.00  0.00
  29                      1.00   0.00  1.00  0.00  0.00  0.00  0.00  0.00  0.00  0.00
  30                      1.00   0.00  0.00  0.00  0.79  0.21  0.00  0.00  0.00  0.00
  31                      1.00   0.00  0.00  0.00  1.00  0.00  0.00  0.00  0.25  0.00
  
  
  *************************
  Conduit Surcharge Summary
  *************************
  
  ----------------------------------------------------------------------------
                                                           Hours        Hours 
                         --------- Hours Full --------   Above Full   Capacity
  Conduit                Both Ends  Upstream  Dnstream   Normal Flow   Limited
  ----------------------------------------------------------------------------
  11                          0.01      0.01   7883.62      0.01         0.01
  12                          0.01      0.01   7860.96      0.01         0.01
  13                         17.92     17.92   7883.62      0.01         0.01
  15                          0.01     17.92      0.01   7336.97         0.01
  18                          0.01      0.01      0.01   6296.53         0.01
  23                          0.01      0.01   7869.55      0.01         0.01
  25                          0.01      0.01   7869.55      0.01         0.01
  27                          0.01      0.01   7873.59      0.01         0.01
  28                          0.01      0.01      0.01   1546.84         0.01
  31                          0.01      0.01   7873.10      0.01         0.01
  

  Analysis begun on:  Tue Apr 14 21:35:29 2020
  Analysis ended on:  Tue Apr 14 21:40:05 2020
  Total elapsed time: 00:04:36