
  EPA STORM WATER MANAGEMENT MODEL - VERSION 5.1 (Build 5.1.013)
  --------------------------------------------------------------

  Template input file for Gottesacker karst system.  
  Based on input files created by Zhao Chen. 
  Modified by Chloe Fandel: 
  
  WARNING 04: minimum elevation drop used for Conduit 5
  WARNING 08: elevation drop exceeds length for Conduit 9
  WARNING 04: minimum elevation drop used for Conduit 11
  WARNING 04: minimum elevation drop used for Conduit 12
  WARNING 04: minimum elevation drop used for Conduit 16
  WARNING 04: minimum elevation drop used for Conduit 21
  WARNING 04: minimum elevation drop used for Conduit 23
  WARNING 08: elevation drop exceeds length for Conduit 24
  WARNING 04: minimum elevation drop used for Conduit 27
  WARNING 04: minimum elevation drop used for Conduit 28
  WARNING 08: elevation drop exceeds length for Conduit 33
  
  *********************************************************
  NOTE: The summary statistics displayed in this report are
  based on results found at every computational time step,  
  not just on results from each reporting time step.
  *********************************************************
  
  ****************
  Analysis Options
  ****************
  Flow Units ............... LPS
  Process Models:
    Rainfall/Runoff ........ YES
    RDII ................... NO
    Snowmelt ............... NO
    Groundwater ............ NO
    Flow Routing ........... YES
    Ponding Allowed ........ NO
    Water Quality .......... NO
  Infiltration Method ...... HORTON
  Flow Routing Method ...... DYNWAVE
  Surcharge Method ......... EXTRAN
  Starting Date ............ 11/14/2013 00:00:00
  Ending Date .............. 10/11/2014 00:00:00
  Antecedent Dry Days ...... 0.0
  Report Time Step ......... 01:00:00
  Wet Time Step ............ 00:30:00
  Dry Time Step ............ 01:00:00
  Routing Time Step ........ 30.00 sec
  Variable Time Step ....... YES
  Maximum Trials ........... 8
  Number of Threads ........ 4
  Head Tolerance ........... 0.001524 m
  
  
  **************************        Volume         Depth
  Runoff Quantity Continuity     hectare-m            mm
  **************************     ---------       -------
  Total Precipitation ......      2492.639       771.595
  Evaporation Loss .........         0.000         0.000
  Infiltration Loss ........         0.000         0.000
  Surface Runoff ...........      2489.776       770.709
  Final Storage ............         3.271         1.012
  Continuity Error (%) .....        -0.016
  
  
  **************************        Volume        Volume
  Flow Routing Continuity        hectare-m      10^6 ltr
  **************************     ---------     ---------
  Dry Weather Inflow .......         0.000         0.000
  Wet Weather Inflow .......      2489.716     24897.421
  Groundwater Inflow .......         0.000         0.000
  RDII Inflow ..............         0.000         0.000
  External Inflow ..........        22.298       222.983
  External Outflow .........      1889.950     18899.695
  Flooding Loss ............         0.000         0.000
  Evaporation Loss .........         0.000         0.000
  Exfiltration Loss ........         0.000         0.000
  Initial Stored Volume ....         0.000         0.000
  Final Stored Volume ......         1.187        11.866
  Continuity Error (%) .....        24.716
  
  
  *************************
  Highest Continuity Errors
  *************************
  Node 37 (51.93%)
  
  
  ***************************
  Time-Step Critical Elements
  ***************************
  Link 30 (22.11%)
  Link 44 (21.10%)
  
  
  ********************************
  Highest Flow Instability Indexes
  ********************************
  Link 39 (36)
  Link 44 (31)
  Link 24 (30)
  Link 14 (23)
  Link 20 (7)
  
  
  *************************
  Routing Time Step Summary
  *************************
  Minimum Time Step           :     0.50 sec
  Average Time Step           :    24.32 sec
  Maximum Time Step           :    30.00 sec
  Percent in Steady State     :     0.30
  Average Iterations per Step :     4.78
  Percent Not Converging      :    43.48
  
  
  ***************************
  Subcatchment Runoff Summary
  ***************************
  
  ------------------------------------------------------------------------------------------------------------------------------
                            Total      Total      Total      Total     Imperv       Perv      Total       Total     Peak  Runoff
                           Precip      Runon       Evap      Infil     Runoff     Runoff     Runoff      Runoff   Runoff   Coeff
  Subcatchment                 mm         mm         mm         mm         mm         mm         mm    10^6 ltr      LPS
  ------------------------------------------------------------------------------------------------------------------------------
  S1                         0.00       0.00       0.00       0.00       0.00       0.00       0.00        0.00     0.00   0.000
  S2                         0.00       0.00       0.00       0.00       0.00       0.00       0.00        0.00     0.00   0.000
  S3                         0.00       0.00       0.00       0.00       0.00       0.00       0.00        0.00     0.00   0.000
  S4                         0.00       0.00       0.00       0.00       0.00       0.00       0.00        0.00     0.00   0.000
  S5                         0.00       0.00       0.00       0.00       0.00       0.00       0.00        0.00     0.00   0.000
  S6                         0.00       0.00       0.00       0.00       0.00       0.00       0.00        0.00     0.00   0.000
  S7                         0.00       0.00       0.00       0.00       0.00       0.00       0.00        0.00     0.00   0.000
  S8                         0.00       0.00       0.00       0.00       0.00       0.00       0.00        0.00     0.00   0.000
  S9                      1037.52       0.00       0.00       0.00    1038.15       0.00    1038.15       72.67    62.44   1.001
  S10                     1025.22       0.00       0.00       0.00    1025.31       0.00    1025.31      371.68   262.35   1.000
  S11                     1067.22       0.00       0.00       0.00    1067.44       0.00    1067.44      296.22   218.08   1.000
  S12                     1385.10       0.00       0.00       0.00    1385.52       0.00    1385.52      498.79   466.98   1.000
  S13                     1033.18       0.00       0.00       0.00    1033.25       0.00    1033.25      322.89   232.04   1.000
  S14                        0.00       0.00       0.00       0.00       0.00       0.00       0.00        0.00     0.00   0.000
  S18                     1036.22       0.00       0.00       0.00    1036.14       0.00    1036.14      841.87   614.86   1.000
  S19                     1318.99       0.00       0.00       0.00    1319.66       0.00    1319.66      240.84   252.07   1.001
  S20                     1566.90       0.00       0.00       0.00    1567.81       0.00    1567.81      219.49   189.92   1.001
  S21                     1605.11       0.00       0.00       0.00    1605.81       0.00    1605.81      325.18   270.67   1.000
  S22                     1481.26       0.00       0.00       0.00    1483.34       0.00    1483.34       44.50    83.43   1.001
  S23                      963.65       0.00       0.00       0.00     964.11       0.00     964.11      113.28   105.57   1.000
  S24                     1292.86       0.00       0.00       0.00    1293.18       0.00    1293.18      484.95   498.34   1.000
  S25                     1102.89       0.00       0.00       0.00    1102.83       0.00    1102.83      882.27   648.85   1.000
  S26                        0.00       0.00       0.00       0.00       0.00       0.00       0.00        0.00     0.00   0.000
  S27                     1030.84       0.00       0.00       0.00    1030.95       0.00    1030.95      365.99   271.37   1.000
  S28                      942.39       0.00       0.00       0.00     942.45       0.00     942.45      421.75   344.89   1.000
  S29                      932.04       0.00       0.00       0.00     932.85       0.00     932.85       41.98    42.64   1.001
  S30                      917.41       0.00       0.00       0.00     918.12       0.00     918.12       52.79    51.03   1.001
  S31                      770.39       0.00       0.00       0.00     770.36       0.00     770.36      381.33   362.19   1.000
  S32                        0.00       0.00       0.00       0.00       0.00       0.00       0.00        0.00     0.00   0.000
  S33                      117.59       0.00       0.00       0.00     117.38       0.00     117.38       85.98    35.47   0.998
  S34                        0.00       0.00       0.00       0.00       0.00       0.00       0.00        0.00     0.00   0.000
  S35                     1448.24       0.00       0.00       0.00    1448.36       0.00    1448.36     1100.76   905.01   1.000
  S36                     1171.44       0.00       0.00       0.00    1170.65       0.00    1170.65     4463.13  2188.34   0.999
  S37                     1362.10       0.00       0.00       0.00    1363.25       0.00    1363.25      132.92   143.90   1.001
  S38                        0.00       0.00       0.00       0.00       0.00       0.00       0.00        0.00     0.00   0.000
  S39                      909.06       0.00       0.00       0.00     907.22       0.00     907.22    13136.65  5095.73   0.998
  S40                        0.00       0.00       0.00       0.00       0.00       0.00       0.00        0.00     0.00   0.000
  S41                        0.00       0.00       0.00       0.00       0.00       0.00       0.00        0.00     0.00   0.000
  
  
  ******************
  Node Depth Summary
  ******************
  
  ---------------------------------------------------------------------------------
                                 Average  Maximum  Maximum  Time of Max    Reported
                                   Depth    Depth      HGL   Occurrence   Max Depth
  Node                 Type       Meters   Meters   Meters  days hr:min      Meters
  ---------------------------------------------------------------------------------
  0                    JUNCTION     0.00     0.00  1872.50     0  00:00        0.00
  1                    JUNCTION     0.00     0.00  1762.50     0  00:00        0.00
  2                    JUNCTION     0.00     0.00  1652.50     0  00:00        0.00
  3                    JUNCTION     0.00     0.00  1652.50     0  00:00        0.00
  4                    JUNCTION     0.00     0.00  1680.00     0  00:00        0.00
  5                    JUNCTION     0.00     0.00  1625.00     0  00:00        0.00
  6                    JUNCTION     0.00     0.00  1680.00     0  00:00        0.00
  7                    JUNCTION     0.29     0.92  1433.42   259  04:38        0.92
  8                    JUNCTION     0.01     0.07  1955.07   259  03:02        0.07
  9                    JUNCTION     0.02     0.10  1927.60   259  03:00        0.10
  10                   JUNCTION     0.05     0.22  1790.22   259  03:07        0.21
  11                   JUNCTION     0.03     0.19  1762.69   262  21:01        0.19
  12                   JUNCTION     0.02     0.10  1735.10   259  03:00        0.10
  13                   JUNCTION     0.00     0.00  1790.00     0  00:00        0.00
  14                   JUNCTION     0.13     0.47  1707.97   259  03:02        0.47
  15                   JUNCTION     0.03     0.14  1707.64   259  03:07        0.14
  16                   JUNCTION     0.00     0.01  1735.01   259  03:01        0.01
  17                   JUNCTION     0.40     1.48  1626.48   262  21:14        1.47
  18                   JUNCTION     0.02     0.11  1707.61   262  21:00        0.11
  19                   JUNCTION     0.30     0.92  1433.42   259  04:46        0.92
  20                   JUNCTION     0.01     0.08  1460.08   259  03:02        0.08
  21                   JUNCTION     0.30     0.91  1433.41   259  04:45        0.91
  22                   JUNCTION     0.09     0.42  1625.42   262  21:15        0.42
  23                   JUNCTION     0.03     0.19  1680.19   262  21:00        0.19
  24                   JUNCTION     0.05     0.24  1570.24   262  21:01        0.24
  25                   JUNCTION     0.08     0.32  1432.82   259  03:41        0.32
  26                   JUNCTION     0.04     0.18  1570.18   259  03:10        0.18
  27                   JUNCTION     0.06     0.26  1570.26   262  21:14        0.26
  28                   JUNCTION     0.07     0.34  1515.34   262  21:08        0.33
  29                   JUNCTION     0.12     0.56  1350.56     2  09:02        0.50
  30                   JUNCTION     0.04     0.24  1542.74   262  21:02        0.24
  31                   JUNCTION     0.00     0.00  1570.00     0  00:00        0.00
  32                   JUNCTION     0.01     0.04  1432.54   237  07:00        0.04
  33                   JUNCTION     0.05     0.28  1377.78   262  21:08        0.28
  34                   JUNCTION     0.13     0.60  1130.60   262  21:15        0.59
  35                   JUNCTION     0.26     1.07  1076.07   262  21:19        1.05
  36                   JUNCTION     0.02     0.15  1102.65   259  03:02        0.15
  37                   JUNCTION    14.07    15.84  1035.84   262  21:19       15.82
  38                   OUTFALL      0.00     0.00  1120.00     0  00:00        0.00
  39                   OUTFALL      0.00     0.00  1080.00     0  00:00        0.00
  40                   OUTFALL      0.08     0.73  1035.73   268  12:53        0.67
  
  
  *******************
  Node Inflow Summary
  *******************
  
  -------------------------------------------------------------------------------------------------
                                  Maximum  Maximum                  Lateral       Total        Flow
                                  Lateral    Total  Time of Max      Inflow      Inflow     Balance
                                   Inflow   Inflow   Occurrence      Volume      Volume       Error
  Node                 Type           LPS      LPS  days hr:min    10^6 ltr    10^6 ltr     Percent
  -------------------------------------------------------------------------------------------------
  0                    JUNCTION      0.00     0.00     0  00:00           0           0       0.000 ltr
  1                    JUNCTION      0.00     0.00     0  00:00           0           0       0.000 ltr
  2                    JUNCTION      0.00     0.00     0  00:00           0           0       0.000 ltr
  3                    JUNCTION      0.00     0.00     0  00:00           0           0       0.000 ltr
  4                    JUNCTION      0.00     0.00     0  00:00           0           0       0.000 ltr
  5                    JUNCTION      0.00     0.00     0  00:00           0           0       0.000 ltr
  6                    JUNCTION      0.00     0.00     0  00:00           0           0       0.000 ltr
  7                    JUNCTION      0.00   123.84   262  21:11           0        61.9       1.967
  8                    JUNCTION     63.47    63.47   259  03:00        74.7        74.7      -0.067
  9                    JUNCTION    263.34   263.34   259  03:00         374         374       0.000
  10                   JUNCTION    219.04   544.82   259  03:00         298         747      -0.017
  11                   JUNCTION    467.05   467.05   262  21:00         499         499      -0.059
  12                   JUNCTION    233.12   233.12   259  03:00         325         325      -0.011
  13                   JUNCTION      0.00     0.00     0  00:00           0           0       0.000 ltr
  14                   JUNCTION      0.00   229.91   259  03:00           0         322       0.003
  15                   JUNCTION      0.00   232.55   259  03:02           0         325      -0.014
  16                   JUNCTION      0.00     3.09   259  03:00           0        3.41       0.000
  17                   JUNCTION    615.26  1330.89   262  21:00         843    1.58e+03       0.035
  18                   JUNCTION    252.18   252.18   262  21:00         241         241       0.000
  19                   JUNCTION    189.92   343.81   259  03:00         219         467      -0.212
  20                   JUNCTION    270.67   270.67   259  03:00         325         325      -0.005
  21                   JUNCTION     83.43   342.96   259  04:01        44.5         589       0.050
  22                   JUNCTION    106.05  1788.43   262  21:09         115    2.45e+03       0.005
  23                   JUNCTION    498.34   498.34   262  21:00         485         485      -0.006
  24                   JUNCTION    649.20   649.20   262  21:00         884         884      -0.002
  25                   JUNCTION      0.00   808.32   259  03:23           0     1.3e+03      -0.005
  26                   JUNCTION    271.83   502.97   259  03:03         368         707      -0.018
  27                   JUNCTION    345.38  2114.53   262  21:12         424    2.87e+03       0.002
  28                   JUNCTION     43.96  2771.68   262  21:07        43.9    3.78e+03      -0.000
  29                   JUNCTION     51.74  3445.74   262  21:11        54.6    5.13e+03      -0.043
  30                   JUNCTION    362.19   858.63   262  21:00         381         866      -0.004
  31                   JUNCTION      0.00     0.00     0  00:00           0           0       0.000 ltr
  32                   JUNCTION     35.47    35.47   237  07:00          86          86       0.000
  33                   JUNCTION      0.00   879.93   262  21:02           0         953      -0.012
  34                   JUNCTION    905.01 43088.09     2  09:02     1.1e+03    7.19e+03       0.001
  35                   JUNCTION   2188.60  7172.08   262  21:12    4.46e+03    1.18e+04      -0.004
  36                   JUNCTION    143.90   143.90   259  03:00         133         133      -0.164
  37                   JUNCTION      0.00  7153.34   262  21:19           0     1.2e+04     108.009
  38                   OUTFALL    5095.77  5095.77   237  07:00    1.31e+04    1.31e+04       0.000
  39                   OUTFALL       0.00     0.00     0  00:00           0           0       0.000 ltr
  40                   OUTFALL       0.00 10426.81   268  12:53           0    5.96e+03       0.000
  
  
  **********************
  Node Surcharge Summary
  **********************
  
  Surcharging occurs when water rises above the top of the highest conduit.
  ---------------------------------------------------------------------
                                               Max. Height   Min. Depth
                                   Hours       Above Crown    Below Rim
  Node                 Type      Surcharged         Meters       Meters
  ---------------------------------------------------------------------
  37                   JUNCTION     7229.94         11.836        0.000
  
  
  *********************
  Node Flooding Summary
  *********************
  
  No nodes were flooded.
  
  
  ***********************
  Outfall Loading Summary
  ***********************
  
  -----------------------------------------------------------
                         Flow       Avg       Max       Total
                         Freq      Flow      Flow      Volume
  Outfall Node           Pcnt       LPS       LPS    10^6 ltr
  -----------------------------------------------------------
  38                    99.40    706.86   5095.77   13137.037
  39                     0.00      0.00      0.00       0.000
  40                    91.06    518.83  10426.81    5963.384
  -----------------------------------------------------------
  System                63.49   1225.69  10426.81   19100.422
  
  
  ********************
  Link Flow Summary
  ********************
  
  -----------------------------------------------------------------------------
                                 Maximum  Time of Max   Maximum    Max/    Max/
                                  |Flow|   Occurrence   |Veloc|    Full    Full
  Link                 Type          LPS  days hr:min     m/sec    Flow   Depth
  -----------------------------------------------------------------------------
  0                    CONDUIT      0.00     0  00:00      0.00    0.00    0.00
  1                    CONDUIT      0.00     0  00:00      0.00    0.00    0.00
  2                    CONDUIT      0.00     0  00:00      0.00    0.00    0.00
  3                    CONDUIT      0.00     0  00:00      0.00    0.00    0.00
  4                    CONDUIT      0.00     0  00:00      0.00    0.00    0.00
  5                    CONDUIT      0.00     0  00:00      0.00    0.00    0.00
  6                    CONDUIT      0.00     0  00:00      0.00    0.00    0.00
  7                    CONDUIT      0.00     0  00:00      0.00    0.00    0.01
  8                    CONDUIT      0.00     0  00:00      0.00    0.00    0.00
  9                    CONDUIT    154.48   259  03:02      0.32    0.00    0.12
  10                   CONDUIT    114.56   259  03:02      0.24    0.00    0.12
  11                   CONDUIT    123.84   262  21:11      0.10    1.39    0.23
  12                   CONDUIT    236.72   259  04:53      0.11    0.38    0.23
  13                   CONDUIT     62.88   259  03:03      0.47    0.00    0.04
  14                   CONDUIT    263.21   259  03:00      1.63    0.00    0.04
  15                   CONDUIT    539.32   259  03:07      1.26    0.01    0.08
  16                   CONDUIT   1277.13   262  21:14      0.56    7.40    0.24
  17                   CONDUIT   1783.20   262  21:15      3.45    0.02    0.09
  18                   CONDUIT    464.43   262  21:01      0.28    0.00    0.21
  19                   CONDUIT    251.98   262  21:00      0.20    0.00    0.20
  20                   CONDUIT    229.91   259  03:00      0.58    0.00    0.07
  21                   CONDUIT      3.09   259  03:00      0.09    0.01    0.01
  22                   CONDUIT      0.00     0  00:00      0.00    0.00    0.01
  23                   CONDUIT    229.47   259  03:02      0.52    0.37    0.08
  24                   CONDUIT      3.09   259  03:01      0.06    0.00    0.02
  25                   CONDUIT    231.48   259  03:07      1.34    0.00    0.04
  26                   CONDUIT    500.83   259  03:10      1.60    0.00    0.06
  27                   CONDUIT     16.82   262  21:14      0.06    0.10    0.05
  28                   CONDUIT    335.51   259  04:26      0.28    2.33    0.15
  29                   CONDUIT    805.35   259  03:41      1.21    0.01    0.15
  30                   CONDUIT   2097.11   262  21:13      4.93    0.01    0.07
  31                   CONDUIT    496.83   262  21:01      1.86    0.00    0.05
  32                   CONDUIT    855.21   262  21:02      2.47    0.01    0.06
  33                   CONDUIT      0.00     0  00:00      0.00    0.00    0.03
  34                   CONDUIT    647.70   262  21:01      1.61    0.01    0.07
  35                   CONDUIT   2771.55   262  21:08      3.96    0.02    0.15
  36                   CONDUIT  43088.09     2  09:02     22.73    0.44    0.21
  37                   CONDUIT    871.46   262  21:08      1.17    0.01    0.11
  38                   CONDUIT   6601.45     2  09:02     25.12    0.06    0.21
  39                   CONDUIT     35.47   237  07:00      0.64    0.00    0.04
  40                   CONDUIT    141.66   259  03:02      0.23    0.00    0.15
  41                   CONDUIT   7153.34   262  21:19      2.30    0.16    0.63
  42                   CONDUIT      0.00     0  00:00      0.00    0.00    0.02
  43                   CONDUIT      0.00     0  00:00      0.00    0.00    0.50
  44                   CONDUIT  10426.81   268  12:53      1.66    0.07    0.59
  
  
  ***************************
  Flow Classification Summary
  ***************************
  
  -------------------------------------------------------------------------------------
                      Adjusted    ---------- Fraction of Time in Flow Class ---------- 
                       /Actual         Up    Down  Sub   Sup   Up    Down  Norm  Inlet 
  Conduit               Length    Dry  Dry   Dry   Crit  Crit  Crit  Crit  Ltd   Ctrl  
  -------------------------------------------------------------------------------------
  0                       1.00   1.00  0.00  0.00  0.00  0.00  0.00  0.00  0.00  0.00
  1                       1.00   1.00  0.00  0.00  0.00  0.00  0.00  0.00  0.00  0.00
  2                       1.00   1.00  0.00  0.00  0.00  0.00  0.00  0.00  0.00  0.00
  3                       1.00   1.00  0.00  0.00  0.00  0.00  0.00  0.00  0.00  0.00
  4                       1.00   1.00  0.00  0.00  0.00  0.00  0.00  0.00  0.00  0.00
  5                       1.00   1.00  0.00  0.00  0.00  0.00  0.00  0.00  0.00  0.00
  6                       1.00   1.00  0.00  0.00  0.00  0.00  0.00  0.00  0.00  0.00
  7                       1.00   0.02  0.98  0.00  0.00  0.00  0.00  0.00  0.00  0.00
  8                       1.00   1.00  0.00  0.00  0.00  0.00  0.00  0.00  0.00  0.00
  9                       1.00   0.00  0.02  0.00  0.98  0.00  0.00  0.00  0.99  0.00
  10                      1.00   0.00  0.02  0.00  0.98  0.00  0.00  0.00  0.99  0.00
  11                      1.00   0.00  0.00  0.00  0.99  0.00  0.00  0.00  0.00  0.00
  12                      1.00   0.00  0.00  0.00  0.99  0.00  0.00  0.00  0.00  0.00
  13                      1.00   0.00  0.02  0.00  0.97  0.00  0.00  0.00  0.99  0.00
  14                      1.00   0.00  0.08  0.00  0.35  0.56  0.00  0.00  0.88  0.00
  15                      1.00   0.00  0.00  0.00  0.97  0.02  0.00  0.00  0.99  0.00
  16                      1.00   0.00  0.00  0.00  0.99  0.00  0.00  0.00  0.00  0.00
  17                      1.00   0.00  0.00  0.00  0.07  0.92  0.00  0.00  0.00  0.00
  18                      1.00   0.00  0.00  0.00  0.99  0.00  0.00  0.00  0.99  0.00
  19                      1.00   0.00  0.01  0.00  0.98  0.00  0.00  0.00  0.99  0.00
  20                      1.00   0.00  0.02  0.00  0.97  0.00  0.00  0.00  0.99  0.00
  21                      1.00   0.03  0.00  0.00  0.97  0.00  0.00  0.00  0.01  0.00
  22                      1.00   0.03  0.97  0.00  0.00  0.00  0.00  0.00  0.00  0.00
  23                      1.00   0.00  0.00  0.00  0.99  0.00  0.00  0.00  0.00  0.00
  24                      1.00   0.00  0.32  0.00  0.67  0.00  0.00  0.00  0.99  0.00
  25                      1.00   0.00  0.00  0.00  0.68  0.31  0.00  0.00  0.98  0.00
  26                      1.00   0.00  0.00  0.00  0.83  0.17  0.00  0.00  0.99  0.00
  27                      1.00   0.00  0.00  0.00  0.99  0.00  0.00  0.00  0.00  0.00
  28                      1.00   0.00  0.00  0.00  0.99  0.00  0.00  0.00  0.00  0.00
  29                      1.00   0.00  0.00  0.00  0.99  0.00  0.00  0.00  0.99  0.00
  30                      1.00   0.00  0.00  0.00  0.00  0.99  0.00  0.00  0.00  0.00
  31                      1.00   0.00  0.01  0.00  0.55  0.44  0.00  0.00  0.98  0.00
  32                      1.00   0.00  0.00  0.00  0.38  0.61  0.00  0.00  0.98  0.00
  33                      1.00   0.00  0.99  0.00  0.00  0.00  0.00  0.00  0.00  0.00
  34                      1.00   0.00  0.00  0.00  0.67  0.32  0.00  0.00  0.99  0.00
  35                      1.00   0.00  0.00  0.00  0.08  0.91  0.00  0.00  0.99  0.00
  36                      1.00   0.00  0.00  0.00  0.17  0.83  0.00  0.00  0.99  0.00
  37                      1.00   0.00  0.00  0.00  0.99  0.00  0.00  0.00  0.99  0.00
  38                      1.00   0.00  0.00  0.00  0.88  0.11  0.00  0.00  0.99  0.00
  39                      1.00   0.00  0.14  0.00  0.83  0.03  0.00  0.00  0.98  0.00
  40                      1.00   0.00  0.01  0.00  0.98  0.00  0.00  0.00  0.98  0.00
  41                      1.00   0.00  0.00  0.00  0.99  0.00  0.00  0.00  0.99  0.00
  42                      1.00   0.01  0.98  0.00  0.00  0.00  0.00  0.00  0.00  0.00
  43                      1.00   0.00  0.99  0.00  0.00  0.00  0.00  0.00  0.00  0.00
  44                      1.00   0.00  0.08  0.00  0.91  0.00  0.00  0.00  0.68  0.00
  
  
  *************************
  Conduit Surcharge Summary
  *************************
  
  ----------------------------------------------------------------------------
                                                           Hours        Hours 
                         --------- Hours Full --------   Above Full   Capacity
  Conduit                Both Ends  Upstream  Dnstream   Normal Flow   Limited
  ----------------------------------------------------------------------------
  11                          0.01      0.01      0.01     13.19         0.01
  16                          0.01      0.01      0.01    725.57         0.01
  28                          0.01      0.01      0.01    172.11         0.01
  41                          0.01      0.01   7229.94      0.01         0.01
  44                          0.01      0.01   7076.09      0.01         0.01
  

  Analysis begun on:  Tue Apr 14 17:30:46 2020
  Analysis ended on:  Tue Apr 14 17:32:11 2020
  Total elapsed time: 00:01:25