
  EPA STORM WATER MANAGEMENT MODEL - VERSION 5.1 (Build 5.1.013)
  --------------------------------------------------------------

  Template input file for Gottesacker karst system.  
  Based on input files created by Zhao Chen. 
  Modified by Chloe Fandel: 
  
  WARNING 04: minimum elevation drop used for Conduit 5
  WARNING 08: elevation drop exceeds length for Conduit 9
  WARNING 04: minimum elevation drop used for Conduit 11
  WARNING 04: minimum elevation drop used for Conduit 12
  WARNING 04: minimum elevation drop used for Conduit 16
  WARNING 04: minimum elevation drop used for Conduit 21
  WARNING 04: minimum elevation drop used for Conduit 23
  WARNING 08: elevation drop exceeds length for Conduit 24
  WARNING 04: minimum elevation drop used for Conduit 27
  WARNING 04: minimum elevation drop used for Conduit 28
  WARNING 08: elevation drop exceeds length for Conduit 33
  
  *********************************************************
  NOTE: The summary statistics displayed in this report are
  based on results found at every computational time step,  
  not just on results from each reporting time step.
  *********************************************************
  
  ****************
  Analysis Options
  ****************
  Flow Units ............... LPS
  Process Models:
    Rainfall/Runoff ........ YES
    RDII ................... NO
    Snowmelt ............... NO
    Groundwater ............ NO
    Flow Routing ........... YES
    Ponding Allowed ........ NO
    Water Quality .......... NO
  Infiltration Method ...... HORTON
  Flow Routing Method ...... DYNWAVE
  Surcharge Method ......... EXTRAN
  Starting Date ............ 11/14/2013 00:00:00
  Ending Date .............. 10/11/2014 00:00:00
  Antecedent Dry Days ...... 0.0
  Report Time Step ......... 01:00:00
  Wet Time Step ............ 00:30:00
  Dry Time Step ............ 01:00:00
  Routing Time Step ........ 30.00 sec
  Variable Time Step ....... YES
  Maximum Trials ........... 8
  Number of Threads ........ 4
  Head Tolerance ........... 0.001524 m
  
  
  **************************        Volume         Depth
  Runoff Quantity Continuity     hectare-m            mm
  **************************     ---------       -------
  Total Precipitation ......      2492.639       771.595
  Evaporation Loss .........         0.000         0.000
  Infiltration Loss ........         0.000         0.000
  Surface Runoff ...........      2489.776       770.709
  Final Storage ............         3.271         1.012
  Continuity Error (%) .....        -0.016
  
  
  **************************        Volume        Volume
  Flow Routing Continuity        hectare-m      10^6 ltr
  **************************     ---------     ---------
  Dry Weather Inflow .......         0.000         0.000
  Wet Weather Inflow .......      2489.756     24897.822
  Groundwater Inflow .......         0.000         0.000
  RDII Inflow ..............         0.000         0.000
  External Inflow ..........         2.254        22.543
  External Outflow .........      2485.525     24855.509
  Flooding Loss ............         2.801        28.013
  Evaporation Loss .........         0.000         0.000
  Exfiltration Loss ........         0.000         0.000
  Initial Stored Volume ....         0.000         0.000
  Final Stored Volume ......         0.117         1.165
  Continuity Error (%) .....         0.143
  
  
  *************************
  Highest Continuity Errors
  *************************
  Node 5 (4.15%)
  
  
  ***************************
  Time-Step Critical Elements
  ***************************
  Link 44 (83.26%)
  Link 12 (1.07%)
  
  
  ********************************
  Highest Flow Instability Indexes
  ********************************
  Link 14 (14)
  Link 44 (11)
  Link 24 (10)
  Link 20 (5)
  Link 12 (4)
  
  
  *************************
  Routing Time Step Summary
  *************************
  Minimum Time Step           :     0.50 sec
  Average Time Step           :    17.09 sec
  Maximum Time Step           :    30.00 sec
  Percent in Steady State     :     0.30
  Average Iterations per Step :     3.66
  Percent Not Converging      :    19.61
  
  
  ***************************
  Subcatchment Runoff Summary
  ***************************
  
  ------------------------------------------------------------------------------------------------------------------------------
                            Total      Total      Total      Total     Imperv       Perv      Total       Total     Peak  Runoff
                           Precip      Runon       Evap      Infil     Runoff     Runoff     Runoff      Runoff   Runoff   Coeff
  Subcatchment                 mm         mm         mm         mm         mm         mm         mm    10^6 ltr      LPS
  ------------------------------------------------------------------------------------------------------------------------------
  S1                         0.00       0.00       0.00       0.00       0.00       0.00       0.00        0.00     0.00   0.000
  S2                         0.00       0.00       0.00       0.00       0.00       0.00       0.00        0.00     0.00   0.000
  S3                         0.00       0.00       0.00       0.00       0.00       0.00       0.00        0.00     0.00   0.000
  S4                         0.00       0.00       0.00       0.00       0.00       0.00       0.00        0.00     0.00   0.000
  S5                         0.00       0.00       0.00       0.00       0.00       0.00       0.00        0.00     0.00   0.000
  S6                         0.00       0.00       0.00       0.00       0.00       0.00       0.00        0.00     0.00   0.000
  S7                         0.00       0.00       0.00       0.00       0.00       0.00       0.00        0.00     0.00   0.000
  S8                         0.00       0.00       0.00       0.00       0.00       0.00       0.00        0.00     0.00   0.000
  S9                      1037.52       0.00       0.00       0.00    1038.15       0.00    1038.15       72.67    62.44   1.001
  S10                     1025.22       0.00       0.00       0.00    1025.31       0.00    1025.31      371.68   262.35   1.000
  S11                     1067.22       0.00       0.00       0.00    1067.44       0.00    1067.44      296.22   218.08   1.000
  S12                     1385.10       0.00       0.00       0.00    1385.52       0.00    1385.52      498.79   466.98   1.000
  S13                     1033.18       0.00       0.00       0.00    1033.25       0.00    1033.25      322.89   232.04   1.000
  S14                        0.00       0.00       0.00       0.00       0.00       0.00       0.00        0.00     0.00   0.000
  S18                     1036.22       0.00       0.00       0.00    1036.14       0.00    1036.14      841.87   614.86   1.000
  S19                     1318.99       0.00       0.00       0.00    1319.66       0.00    1319.66      240.84   252.07   1.001
  S20                     1566.90       0.00       0.00       0.00    1567.81       0.00    1567.81      219.49   189.92   1.001
  S21                     1605.11       0.00       0.00       0.00    1605.81       0.00    1605.81      325.18   270.67   1.000
  S22                     1481.26       0.00       0.00       0.00    1483.34       0.00    1483.34       44.50    83.43   1.001
  S23                      963.65       0.00       0.00       0.00     964.11       0.00     964.11      113.28   105.57   1.000
  S24                     1292.86       0.00       0.00       0.00    1293.18       0.00    1293.18      484.95   498.34   1.000
  S25                     1102.89       0.00       0.00       0.00    1102.83       0.00    1102.83      882.27   648.85   1.000
  S26                        0.00       0.00       0.00       0.00       0.00       0.00       0.00        0.00     0.00   0.000
  S27                     1030.84       0.00       0.00       0.00    1030.95       0.00    1030.95      365.99   271.37   1.000
  S28                      942.39       0.00       0.00       0.00     942.45       0.00     942.45      421.75   344.89   1.000
  S29                      932.04       0.00       0.00       0.00     932.85       0.00     932.85       41.98    42.64   1.001
  S30                      917.41       0.00       0.00       0.00     918.12       0.00     918.12       52.79    51.03   1.001
  S31                      770.39       0.00       0.00       0.00     770.36       0.00     770.36      381.33   362.19   1.000
  S32                        0.00       0.00       0.00       0.00       0.00       0.00       0.00        0.00     0.00   0.000
  S33                      117.59       0.00       0.00       0.00     117.38       0.00     117.38       85.98    35.47   0.998
  S34                        0.00       0.00       0.00       0.00       0.00       0.00       0.00        0.00     0.00   0.000
  S35                     1448.24       0.00       0.00       0.00    1448.36       0.00    1448.36     1100.76   905.01   1.000
  S36                     1171.44       0.00       0.00       0.00    1170.65       0.00    1170.65     4463.13  2188.34   0.999
  S37                     1362.10       0.00       0.00       0.00    1363.25       0.00    1363.25      132.92   143.90   1.001
  S38                        0.00       0.00       0.00       0.00       0.00       0.00       0.00        0.00     0.00   0.000
  S39                      909.06       0.00       0.00       0.00     907.22       0.00     907.22    13136.65  5095.73   0.998
  S40                        0.00       0.00       0.00       0.00       0.00       0.00       0.00        0.00     0.00   0.000
  S41                        0.00       0.00       0.00       0.00       0.00       0.00       0.00        0.00     0.00   0.000
  
  
  ******************
  Node Depth Summary
  ******************
  
  ---------------------------------------------------------------------------------
                                 Average  Maximum  Maximum  Time of Max    Reported
                                   Depth    Depth      HGL   Occurrence   Max Depth
  Node                 Type       Meters   Meters   Meters  days hr:min      Meters
  ---------------------------------------------------------------------------------
  0                    JUNCTION     0.00     0.00  1872.50     0  00:00        0.00
  1                    JUNCTION     0.00     0.00  1762.50     0  00:00        0.00
  2                    JUNCTION     0.00     0.00  1652.50     0  00:00        0.00
  3                    JUNCTION     0.00     0.00  1652.50     0  00:00        0.00
  4                    JUNCTION     0.00     0.00  1680.00     0  00:00        0.00
  5                    JUNCTION     0.00     0.10  1625.10   237  07:36        0.08
  6                    JUNCTION     0.00     0.00  1680.00     0  00:00        0.00
  7                    JUNCTION     4.81   194.49  1626.99   237  07:11      193.63
  8                    JUNCTION     0.01     0.07  1955.07   259  03:02        0.07
  9                    JUNCTION     0.02     0.10  1927.60   259  03:00        0.10
  10                   JUNCTION     0.04     0.22  1790.22   259  03:07        0.21
  11                   JUNCTION     0.03     0.19  1762.69   262  21:01        0.19
  12                   JUNCTION     0.02     0.10  1735.10   259  03:00        0.10
  13                   JUNCTION     0.00     0.00  1790.00     0  00:00        0.00
  14                   JUNCTION     0.13     0.47  1707.97   259  03:02        0.47
  15                   JUNCTION     0.03     0.14  1707.64   259  03:09        0.14
  16                   JUNCTION     0.00     0.01  1735.01   259  03:01        0.01
  17                   JUNCTION     0.40     1.49  1626.49   262  21:12        1.48
  18                   JUNCTION     0.03     0.20  1707.70   262  21:00        0.20
  19                   JUNCTION     4.82   194.49  1626.99   237  07:12      193.63
  20                   JUNCTION     3.30   166.99  1626.99   237  07:12      166.13
  21                   JUNCTION     4.81   194.44  1626.94   237  07:12      193.58
  22                   JUNCTION     0.08     0.39  1625.39   262  21:14        0.39
  23                   JUNCTION     0.03     0.19  1680.19   262  21:01        0.19
  24                   JUNCTION     0.10    45.70  1615.70   237  07:13       44.58
  25                   JUNCTION     4.32   190.54  1623.04   237  07:13      189.41
  26                   JUNCTION     0.13    53.04  1623.04   237  07:12       51.91
  27                   JUNCTION     0.19    53.04  1623.04   237  07:12       51.92
  28                   JUNCTION     1.56   100.70  1615.70   237  07:12       99.58
  29                   JUNCTION     7.27   201.00  1551.00   237  05:47      201.00
  30                   JUNCTION     0.08     0.48  1542.98   262  21:05        0.48
  31                   JUNCTION     0.00     0.00  1570.00     0  00:00        0.00
  32                   JUNCTION     0.02     0.08  1432.58   262  21:09        0.07
  33                   JUNCTION     0.12    55.08  1432.58   262  21:07       53.70
  34                   JUNCTION     8.24   201.00  1331.00   227  17:52      201.00
  35                   JUNCTION    10.00   140.01  1215.01   259  03:00      139.97
  36                   JUNCTION     2.46    42.07  1144.57   259  03:00       42.06
  37                   JUNCTION    16.24    21.05  1041.05   259  03:00       21.05
  38                   OUTFALL      0.04     0.72  1120.72   259  03:00        0.72
  39                   OUTFALL      0.12     0.79  1080.79   259  03:00        0.79
  40                   OUTFALL      0.23     0.52  1035.52   259  03:00        0.52
  
  
  *******************
  Node Inflow Summary
  *******************
  
  -------------------------------------------------------------------------------------------------
                                  Maximum  Maximum                  Lateral       Total        Flow
                                  Lateral    Total  Time of Max      Inflow      Inflow     Balance
                                   Inflow   Inflow   Occurrence      Volume      Volume       Error
  Node                 Type           LPS      LPS  days hr:min    10^6 ltr    10^6 ltr     Percent
  -------------------------------------------------------------------------------------------------
  0                    JUNCTION      0.00     0.00     0  00:00           0           0       0.000 ltr
  1                    JUNCTION      0.00     0.00     0  00:00           0           0       0.000 ltr
  2                    JUNCTION      0.00     0.00     0  00:00           0           0       0.000 ltr
  3                    JUNCTION      0.00     0.00     0  00:00           0           0       0.000 ltr
  4                    JUNCTION      0.00     0.00     0  00:00           0           0       0.000 ltr
  5                    JUNCTION      0.00    57.54   237  07:14           0       0.108       4.334
  6                    JUNCTION      0.00     0.00     0  00:00           0           0       0.000 ltr
  7                    JUNCTION      0.00   156.31   262  19:03           0        36.8      -2.464
  8                    JUNCTION     63.47    63.47   259  03:00        74.7        74.7      -0.069
  9                    JUNCTION    263.34   263.34   259  03:00         374         374       0.000
  10                   JUNCTION    219.04   544.79   259  03:00         298         747      -0.017
  11                   JUNCTION    467.05   467.05   262  21:00         499         499      -0.058
  12                   JUNCTION    233.11   233.11   259  03:00         325         325      -0.012
  13                   JUNCTION      0.00     0.00     0  00:00           0           0       0.000 ltr
  14                   JUNCTION      0.00   229.90   259  03:00           0         322       0.003
  15                   JUNCTION      0.00   232.54   259  03:02           0         325      -0.103
  16                   JUNCTION      0.00     3.09   259  03:00           0         3.4       0.000
  17                   JUNCTION    615.26  1330.92   262  21:00         843    1.58e+03       0.032
  18                   JUNCTION    252.18   252.18   262  21:00         241         241       0.000
  19                   JUNCTION    189.92   637.48   262  20:38         219         430       0.253
  20                   JUNCTION    270.67  1188.21   262  20:38         325         334      -0.328
  21                   JUNCTION     83.43   853.93   262  20:38        44.5         604       0.141
  22                   JUNCTION    106.05  1794.22   262  21:09         115    2.45e+03      -0.006
  23                   JUNCTION    498.34   498.34   262  21:00         485         485      -0.012
  24                   JUNCTION    649.20  1013.48   237  06:07         884         885      -0.024
  25                   JUNCTION      0.00  1316.88   262  20:18           0    1.43e+03      -0.022
  26                   JUNCTION    271.83  1990.18   262  21:25         368         842       0.078
  27                   JUNCTION    345.38  2121.41   262  21:11         424    2.89e+03      -0.018
  28                   JUNCTION     43.96  2498.71   262  20:33        43.9    3.67e+03      -0.001
  29                   JUNCTION     51.74  2635.52   237  07:11        54.6    5.14e+03      -0.007
  30                   JUNCTION    362.19   858.39   262  21:00         381         866       0.002
  31                   JUNCTION      0.00     0.00     0  00:00           0           0       0.000 ltr
  32                   JUNCTION     35.47    35.47   237  07:00          86          86       0.000
  33                   JUNCTION      0.00   873.86   262  21:03           0         952      -0.004
  34                   JUNCTION    905.01  4474.63     2  09:02     1.1e+03    7.17e+03      -0.013
  35                   JUNCTION   2188.60  4551.51   259  03:00    4.46e+03    1.17e+04      -0.014
  36                   JUNCTION    143.90  1546.63   259  03:00         133    1.04e+03      -0.028
  37                   JUNCTION      0.00  1239.59   259  03:00           0    7.48e+03       0.558
  38                   OUTFALL    5095.77  6557.88   237  07:00    1.31e+04    1.41e+04       0.000
  39                   OUTFALL       0.00  1909.15   259  03:00           0    3.34e+03       0.000
  40                   OUTFALL       0.00  1239.59   259  03:00           0    7.44e+03       0.000
  
  
  **********************
  Node Surcharge Summary
  **********************
  
  Surcharging occurs when water rises above the top of the highest conduit.
  ---------------------------------------------------------------------
                                               Max. Height   Min. Depth
                                   Hours       Above Crown    Below Rim
  Node                 Type      Surcharged         Meters       Meters
  ---------------------------------------------------------------------
  7                    JUNCTION      416.33        193.487        0.000
  19                   JUNCTION      438.65        193.489        0.000
  20                   JUNCTION      148.29        165.989        0.000
  21                   JUNCTION      430.84        193.436        0.000
  24                   JUNCTION        7.59         41.700        0.000
  25                   JUNCTION      162.35        186.539        0.000
  26                   JUNCTION       12.71         49.041        0.000
  27                   JUNCTION       12.72         49.041        0.000
  28                   JUNCTION      118.69         96.701        0.000
  29                   JUNCTION      236.64        200.000        0.000
  33                   JUNCTION        2.43         54.075        0.000
  34                   JUNCTION      446.85        200.000        0.000
  35                   JUNCTION     1649.19        139.010        0.000
  36                   JUNCTION      583.24         41.072        0.000
  37                   JUNCTION     7877.90         20.055        0.000
  
  
  *********************
  Node Flooding Summary
  *********************
  
  Flooding refers to all water that overflows a node, whether it ponds or not.
  --------------------------------------------------------------------------
                                                             Total   Maximum
                                 Maximum   Time of Max       Flood    Ponded
                        Hours       Rate    Occurrence      Volume     Depth
  Node                 Flooded       LPS   days hr:min    10^6 ltr    Meters
  --------------------------------------------------------------------------
  29                      7.90   1100.43    237  07:11      13.790   200.000
  34                     19.46    843.35    262  21:00      14.223   200.000
  
  
  ***********************
  Outfall Loading Summary
  ***********************
  
  -----------------------------------------------------------
                         Flow       Avg       Max       Total
                         Freq      Flow      Flow      Volume
  Outfall Node           Pcnt       LPS       LPS    10^6 ltr
  -----------------------------------------------------------
  38                    99.58    699.81   6557.88   14085.256
  39                    29.60    628.78   1909.15    3335.517
  40                    98.09    365.42   1239.59    7435.049
  -----------------------------------------------------------
  System                75.75   1694.02   1239.59   24855.821
  
  
  ********************
  Link Flow Summary
  ********************
  
  -----------------------------------------------------------------------------
                                 Maximum  Time of Max   Maximum    Max/    Max/
                                  |Flow|   Occurrence   |Veloc|    Full    Full
  Link                 Type          LPS  days hr:min     m/sec    Flow   Depth
  -----------------------------------------------------------------------------
  0                    CONDUIT      0.00     0  00:00      0.00    0.00    0.00
  1                    CONDUIT      0.00     0  00:00      0.00    0.00    0.00
  2                    CONDUIT      0.00     0  00:00      0.00    0.00    0.00
  3                    CONDUIT      0.00     0  00:00      0.00    0.00    0.00
  4                    CONDUIT      0.00     0  00:00      0.00    0.00    0.00
  5                    CONDUIT      0.00     0  00:00      0.00    0.00    0.00
  6                    CONDUIT      0.00     0  00:00      0.00    0.00    0.01
  7                    CONDUIT     57.54   237  07:14      0.14    0.06    0.55
  8                    CONDUIT      0.00     0  00:00      0.00    0.00    0.05
  9                    CONDUIT    521.69   262  20:38      0.86    0.13    1.00
  10                   CONDUIT    497.86   262  20:37      0.70    0.17    1.00
  11                   CONDUIT    156.31   262  19:03      0.22  109.64    1.00
  12                   CONDUIT    367.41   169  10:06      0.47   37.38    1.00
  13                   CONDUIT     62.88   259  03:03      0.47    0.00    0.04
  14                   CONDUIT    263.20   259  03:00      1.63    0.00    0.04
  15                   CONDUIT    539.36   259  03:07      1.34    0.01    0.07
  16                   CONDUIT   1281.95   262  21:13      0.57    7.43    0.24
  17                   CONDUIT   1789.38   262  21:14      2.30    0.02    0.54
  18                   CONDUIT    464.42   262  21:01      0.27    0.00    0.21
  19                   CONDUIT    252.03   262  21:00      0.51    0.09    0.60
  20                   CONDUIT    229.90   259  03:00      0.58    0.00    0.07
  21                   CONDUIT      3.09   259  03:00      0.09    0.01    0.01
  22                   CONDUIT      0.00     0  00:00      0.00    0.00    0.01
  23                   CONDUIT    229.45   259  03:02      0.52    0.37    0.08
  24                   CONDUIT     38.33   113  06:51      0.24    0.00    0.02
  25                   CONDUIT    230.88   259  03:09      1.27    0.00    0.52
  26                   CONDUIT    896.92   262  20:57      0.89    0.01    1.00
  27                   CONDUIT   1586.30   262  21:25      0.52    9.64    1.00
  28                   CONDUIT    791.40   262  20:38      1.01  344.95    1.00
  29                   CONDUIT   1051.06   259  18:37      1.40    1.08    1.00
  30                   CONDUIT   1860.05   262  20:33      3.34    0.45    1.00
  31                   CONDUIT    496.64   262  21:01      1.00    0.00    0.08
  32                   CONDUIT    849.65   262  21:05      1.99    0.47    0.74
  33                   CONDUIT      0.00     0  00:00      0.00    0.00    0.24
  34                   CONDUIT    632.69   262  20:53      0.84    0.01    1.00
  35                   CONDUIT   1751.96   312  00:53      2.59    0.60    1.00
  36                   CONDUIT   4474.63     2  09:02      9.28    2.88    1.00
  37                   CONDUIT    871.89   262  21:08      1.11    0.63    1.00
  38                   CONDUIT   2606.09   262  23:52     25.01    1.58    1.00
  39                   CONDUIT     35.46   237  07:00      0.35    0.01    0.54
  40                   CONDUIT   1402.74   259  03:00      1.79    1.59    1.00
  41                   CONDUIT   1239.59   259  03:00      2.27    1.77    1.00
  42                   CONDUIT   1546.57   259  03:00      2.15    1.20    0.86
  43                   CONDUIT   1909.15   259  03:00      2.57    5.47    0.90
  44                   CONDUIT   1239.59   259  03:00      1.93    0.54    0.76
  
  
  ***************************
  Flow Classification Summary
  ***************************
  
  -------------------------------------------------------------------------------------
                      Adjusted    ---------- Fraction of Time in Flow Class ---------- 
                       /Actual         Up    Down  Sub   Sup   Up    Down  Norm  Inlet 
  Conduit               Length    Dry  Dry   Dry   Crit  Crit  Crit  Crit  Ltd   Ctrl  
  -------------------------------------------------------------------------------------
  0                       1.00   1.00  0.00  0.00  0.00  0.00  0.00  0.00  0.00  0.00
  1                       1.00   1.00  0.00  0.00  0.00  0.00  0.00  0.00  0.00  0.00
  2                       1.00   1.00  0.00  0.00  0.00  0.00  0.00  0.00  0.00  0.00
  3                       1.00   1.00  0.00  0.00  0.00  0.00  0.00  0.00  0.00  0.00
  4                       1.00   1.00  0.00  0.00  0.00  0.00  0.00  0.00  0.00  0.00
  5                       1.00   1.00  0.00  0.00  0.00  0.00  0.00  0.00  0.00  0.00
  6                       1.00   0.98  0.01  0.00  0.00  0.00  0.00  0.00  0.00  0.00
  7                       1.00   0.00  0.98  0.00  0.01  0.00  0.00  0.00  0.28  0.00
  8                       1.00   0.98  0.01  0.00  0.00  0.00  0.00  0.00  0.00  0.00
  9                       1.00   0.00  0.00  0.00  1.00  0.00  0.00  0.00  0.97  0.00
  10                      1.00   0.00  0.00  0.00  1.00  0.00  0.00  0.00  0.97  0.00
  11                      1.00   0.00  0.00  0.00  1.00  0.00  0.00  0.00  0.00  0.00
  12                      1.00   0.00  0.00  0.00  1.00  0.00  0.00  0.00  0.00  0.00
  13                      1.00   0.00  0.01  0.00  0.98  0.00  0.00  0.00  0.99  0.00
  14                      1.00   0.00  0.05  0.00  0.38  0.57  0.00  0.00  0.91  0.00
  15                      1.00   0.00  0.00  0.00  0.96  0.04  0.00  0.00  0.99  0.00
  16                      1.00   0.00  0.00  0.00  1.00  0.00  0.00  0.00  0.00  0.00
  17                      1.00   0.00  0.00  0.00  0.38  0.61  0.00  0.00  0.99  0.00
  18                      1.00   0.00  0.00  0.00  0.99  0.00  0.00  0.00  0.99  0.00
  19                      1.00   0.00  0.00  0.00  1.00  0.00  0.00  0.00  0.99  0.00
  20                      1.00   0.00  0.02  0.00  0.98  0.00  0.00  0.00  0.99  0.00
  21                      1.00   0.02  0.00  0.00  0.98  0.00  0.00  0.00  0.01  0.00
  22                      1.00   0.02  0.98  0.00  0.00  0.00  0.00  0.00  0.00  0.00
  23                      1.00   0.00  0.00  0.00  1.00  0.00  0.00  0.00  0.00  0.00
  24                      1.00   0.00  0.24  0.00  0.75  0.00  0.00  0.00  0.99  0.00
  25                      1.00   0.00  0.00  0.00  0.78  0.21  0.00  0.00  0.98  0.00
  26                      1.00   0.00  0.00  0.00  1.00  0.00  0.00  0.00  0.98  0.00
  27                      1.00   0.00  0.00  0.00  1.00  0.00  0.00  0.00  0.00  0.00
  28                      1.00   0.00  0.00  0.00  1.00  0.00  0.00  0.00  0.00  0.00
  29                      1.00   0.00  0.00  0.00  1.00  0.00  0.00  0.00  0.96  0.00
  30                      1.00   0.00  0.00  0.00  0.04  0.96  0.00  0.00  0.00  0.00
  31                      1.00   0.00  0.00  0.00  1.00  0.00  0.00  0.00  0.99  0.00
  32                      1.00   0.00  0.00  0.00  0.88  0.11  0.00  0.00  0.98  0.00
  33                      1.00   0.00  1.00  0.00  0.00  0.00  0.00  0.00  0.00  0.00
  34                      1.00   0.00  0.00  0.00  1.00  0.00  0.00  0.00  0.99  0.00
  35                      1.00   0.00  0.00  0.00  0.32  0.67  0.00  0.00  0.97  0.00
  36                      1.00   0.00  0.00  0.00  1.00  0.00  0.00  0.00  0.96  0.00
  37                      1.00   0.00  0.00  0.00  1.00  0.00  0.00  0.00  0.99  0.00
  38                      1.00   0.00  0.00  0.00  1.00  0.00  0.00  0.00  0.92  0.00
  39                      1.00   0.00  0.00  0.00  1.00  0.00  0.00  0.00  0.99  0.00
  40                      1.00   0.00  0.01  0.00  0.99  0.00  0.00  0.00  0.90  0.00
  41                      1.00   0.00  0.00  0.00  1.00  0.00  0.00  0.00  0.77  0.00
  42                      1.00   0.01  0.91  0.00  0.08  0.00  0.00  0.00  0.53  0.00
  43                      1.00   0.00  0.70  0.00  0.30  0.00  0.00  0.00  0.43  0.00
  44                      1.00   0.00  0.00  0.00  0.99  0.00  0.00  0.00  0.17  0.00
  
  
  *************************
  Conduit Surcharge Summary
  *************************
  
  ----------------------------------------------------------------------------
                                                           Hours        Hours 
                         --------- Hours Full --------   Above Full   Capacity
  Conduit                Both Ends  Upstream  Dnstream   Normal Flow   Limited
  ----------------------------------------------------------------------------
  7                           0.01      0.01     25.35      0.01         0.01
  9                         148.28    148.28    438.61      0.01         0.01
  10                        148.28    148.28    430.82      0.01         0.01
  11                        415.17    416.30    438.61   3090.37       134.18
  12                        430.82    438.61    430.82   2650.91       413.98
  16                          0.01      0.01      0.01    725.72         0.01
  17                          0.01      0.01     12.72      0.01         0.01
  19                          0.01      0.01    128.80      0.01         0.01
  25                          0.01      0.01     12.71      0.01         0.01
  26                         12.71     12.71    162.34      0.01         0.01
  27                         12.71     12.71     12.72     72.49         1.72
  28                        222.10    430.82    222.10   4904.31       212.31
  29                        218.24    222.10    236.64      5.20         1.54
  30                         93.88     93.88    140.66      0.01         0.01
  32                          0.01      0.01      2.43      0.01         0.01
  34                          7.59      7.59    118.68      0.01         0.01
  35                        140.66    140.66    236.65      0.01         0.01
  36                        236.64    236.64    446.84    110.06       112.69
  37                          2.43      2.43    446.84      0.01         0.01
  38                        446.84    446.84   1649.17    252.19       254.12
  39                          0.01      0.01      2.43      0.01         0.01
  40                        583.21    583.21   1649.17    121.04         0.01
  41                       1649.17   1649.17   7877.90    811.11       833.93
  42                          0.01      0.01   4591.62     30.33         0.01
  43                          0.01      0.01   5071.87    949.85         0.01
  44                          0.01      0.01   7852.29      0.01         0.01
  

  Analysis begun on:  Tue Apr 14 17:27:14 2020
  Analysis ended on:  Tue Apr 14 17:29:09 2020
  Total elapsed time: 00:01:55