
  EPA STORM WATER MANAGEMENT MODEL - VERSION 5.1 (Build 5.1.013)
  --------------------------------------------------------------

  Template input file for Gottesacker karst system.  
  Based on input files created by Zhao Chen. 
  Modified by Chloe Fandel: 
  
  WARNING 08: elevation drop exceeds length for Conduit 2
  WARNING 04: minimum elevation drop used for Conduit 4
  WARNING 04: minimum elevation drop used for Conduit 11
  WARNING 04: minimum elevation drop used for Conduit 18
  WARNING 08: elevation drop exceeds length for Conduit 20
  
  *********************************************************
  NOTE: The summary statistics displayed in this report are
  based on results found at every computational time step,  
  not just on results from each reporting time step.
  *********************************************************
  
  ****************
  Analysis Options
  ****************
  Flow Units ............... LPS
  Process Models:
    Rainfall/Runoff ........ YES
    RDII ................... NO
    Snowmelt ............... NO
    Groundwater ............ NO
    Flow Routing ........... YES
    Ponding Allowed ........ NO
    Water Quality .......... NO
  Infiltration Method ...... HORTON
  Flow Routing Method ...... DYNWAVE
  Surcharge Method ......... EXTRAN
  Starting Date ............ 11/14/2013 00:00:00
  Ending Date .............. 10/11/2014 00:00:00
  Antecedent Dry Days ...... 0.0
  Report Time Step ......... 01:00:00
  Wet Time Step ............ 00:30:00
  Dry Time Step ............ 01:00:00
  Routing Time Step ........ 30.00 sec
  Variable Time Step ....... YES
  Maximum Trials ........... 8
  Number of Threads ........ 4
  Head Tolerance ........... 0.001524 m
  
  
  **************************        Volume         Depth
  Runoff Quantity Continuity     hectare-m            mm
  **************************     ---------       -------
  Total Precipitation ......      1918.244       705.626
  Evaporation Loss .........         0.000         0.000
  Infiltration Loss ........         0.000         0.000
  Surface Runoff ...........      1915.103       704.470
  Final Storage ............         3.433         1.263
  Continuity Error (%) .....        -0.015
  
  
  **************************        Volume        Volume
  Flow Routing Continuity        hectare-m      10^6 ltr
  **************************     ---------     ---------
  Dry Weather Inflow .......         0.000         0.000
  Wet Weather Inflow .......      1915.093     19151.133
  Groundwater Inflow .......         0.000         0.000
  RDII Inflow ..............         0.000         0.000
  External Inflow ..........         1.151        11.511
  External Outflow .........      2392.916     23929.410
  Flooding Loss ............         0.864         8.642
  Evaporation Loss .........         0.000         0.000
  Exfiltration Loss ........         0.000         0.000
  Initial Stored Volume ....         0.000         0.000
  Final Stored Volume ......         0.207         2.066
  Continuity Error (%) .....       -24.931
  
  
  *************************
  Highest Continuity Errors
  *************************
  Node 9 (-23.63%)
  Node 12 (1.54%)
  Node 15 (1.31%)
  Node 21 (1.07%)
  
  
  ***************************
  Time-Step Critical Elements
  ***************************
  Link 24 (77.84%)
  Link 22 (1.91%)
  
  
  ********************************
  Highest Flow Instability Indexes
  ********************************
  Link 12 (106)
  Link 11 (104)
  Link 24 (16)
  Link 13 (5)
  Link 18 (5)
  
  
  *************************
  Routing Time Step Summary
  *************************
  Minimum Time Step           :     0.50 sec
  Average Time Step           :    18.75 sec
  Maximum Time Step           :    30.00 sec
  Percent in Steady State     :     0.30
  Average Iterations per Step :     5.13
  Percent Not Converging      :    45.60
  
  
  ***************************
  Subcatchment Runoff Summary
  ***************************
  
  ------------------------------------------------------------------------------------------------------------------------------
                            Total      Total      Total      Total     Imperv       Perv      Total       Total     Peak  Runoff
                           Precip      Runon       Evap      Infil     Runoff     Runoff     Runoff      Runoff   Runoff   Coeff
  Subcatchment                 mm         mm         mm         mm         mm         mm         mm    10^6 ltr      LPS
  ------------------------------------------------------------------------------------------------------------------------------
  S1                         0.00       0.00       0.00       0.00       0.00       0.00       0.00        0.00     0.00   0.000
  S2                         0.00       0.00       0.00       0.00       0.00       0.00       0.00        0.00     0.00   0.000
  S3                         0.00       0.00       0.00       0.00       0.00       0.00       0.00        0.00     0.00   0.000
  S4                         0.00       0.00       0.00       0.00       0.00       0.00       0.00        0.00     0.00   0.000
  S5                      1037.52       0.00       0.00       0.00    1038.15       0.00    1038.15       72.67    62.44   1.001
  S6                      1025.22       0.00       0.00       0.00    1025.31       0.00    1025.31      371.68   262.35   1.000
  S7                      1067.22       0.00       0.00       0.00    1067.44       0.00    1067.44      296.22   218.08   1.000
  S8                      1385.10       0.00       0.00       0.00    1385.52       0.00    1385.52      498.79   466.98   1.000
  S9                      1036.22       0.00       0.00       0.00    1036.14       0.00    1036.14      841.87   614.86   1.000
  S10                     1303.86       0.00       0.00       0.00    1304.83       0.00    1304.83      123.96   153.90   1.001
  S11                     1323.24       0.00       0.00       0.00    1324.30       0.00    1324.30      115.88   125.53   1.001
  S12                     1003.45       0.00       0.00       0.00    1004.05       0.00    1004.05       80.32    68.42   1.001
  S13                     1565.06       0.00       0.00       0.00    1565.91       0.00    1565.91      246.63   210.79   1.001
  S14                     1589.63       0.00       0.00       0.00    1590.24       0.00    1590.24      381.66   311.46   1.000
  S15                     1292.86       0.00       0.00       0.00    1293.18       0.00    1293.18      484.95   498.34   1.000
  S16                      770.39       0.00       0.00       0.00     770.36       0.00     770.36      381.33   362.19   1.000
  S17                        0.00       0.00       0.00       0.00       0.00       0.00       0.00        0.00     0.00   0.000
  S18                     1447.74       0.00       0.00       0.00    1447.95       0.00    1447.95      908.60   777.54   1.000
  S19                     1445.01       0.00       0.00       0.00    1445.95       0.00    1445.95      195.20   205.61   1.001
  S20                      848.36       0.00       0.00       0.00     846.43       0.00     846.43    13936.51  5208.68   0.998
  S21                     1369.60       0.00       0.00       0.00    1371.06       0.00    1371.06       82.26    92.06   1.001
  S22                       22.11       0.00       0.00       0.00      21.88       0.00      21.88       81.55    15.50   0.989
  S23                     1359.91       0.00       0.00       0.00    1361.72       0.00    1361.72       51.06    60.01   1.001
  S24                        0.00       0.00       0.00       0.00       0.00       0.00       0.00        0.00     0.00   0.000
  S25                        0.00       0.00       0.00       0.00       0.00       0.00       0.00        0.00     0.00   0.000
  
  
  ******************
  Node Depth Summary
  ******************
  
  ---------------------------------------------------------------------------------
                                 Average  Maximum  Maximum  Time of Max    Reported
                                   Depth    Depth      HGL   Occurrence   Max Depth
  Node                 Type       Meters   Meters   Meters  days hr:min      Meters
  ---------------------------------------------------------------------------------
  0                    JUNCTION     0.00     0.00  1872.50     0  00:00        0.00
  1                    JUNCTION     0.00     0.00  1735.00     0  00:00        0.00
  2                    JUNCTION     0.00     0.00  1762.50     0  00:00        0.00
  3                    JUNCTION     0.05   104.19  1536.69   237  07:02      103.73
  4                    JUNCTION     0.01     0.07  1955.07   259  03:03        0.07
  5                    JUNCTION     0.03     0.14  1927.64   259  03:00        0.14
  6                    JUNCTION     0.09     0.43  1817.93   259  03:11        0.42
  7                    JUNCTION     0.07     0.36  1762.86   262  21:01        0.36
  8                    JUNCTION     4.32    73.36  1698.36   262  21:00       73.27
  9                    JUNCTION     7.21    82.39  1707.39   262  21:00       82.24
  10                   JUNCTION     0.00     0.01  1707.51   259  02:17        0.01
  11                   JUNCTION     0.08     0.65  1680.65   259  03:25        0.63
  12                   JUNCTION     0.55   201.00  1578.50   259  02:19      158.73
  13                   JUNCTION     0.45   201.00  1578.50   259  02:19      158.60
  14                   JUNCTION     0.07     0.99  1680.99   262  22:39        0.61
  15                   JUNCTION     0.18   201.00  1743.50   262  22:35      126.24
  16                   JUNCTION     0.10   201.00  1771.00   262  22:34      201.00
  17                   JUNCTION     1.24   173.29  1605.79   262  21:00      173.23
  18                   JUNCTION     4.95   159.32  1289.32   237  07:00      159.31
  19                   JUNCTION    13.60   167.90  1270.40   237  07:00      167.89
  20                   JUNCTION    10.30   140.47  1242.97   237  07:00      140.45
  21                   JUNCTION    15.94    22.54  1042.54   237  07:00       22.54
  22                   OUTFALL      0.21     1.00  1121.00   168  21:13        1.00
  23                   OUTFALL      0.35     0.76  1080.76   237  07:00        0.76
  24                   OUTFALL      0.19     0.58  1035.58   237  07:00        0.58
  
  
  *******************
  Node Inflow Summary
  *******************
  
  -------------------------------------------------------------------------------------------------
                                  Maximum  Maximum                  Lateral       Total        Flow
                                  Lateral    Total  Time of Max      Inflow      Inflow     Balance
                                   Inflow   Inflow   Occurrence      Volume      Volume       Error
  Node                 Type           LPS      LPS  days hr:min    10^6 ltr    10^6 ltr     Percent
  -------------------------------------------------------------------------------------------------
  0                    JUNCTION      0.00     0.00     0  00:00           0           0       0.000 ltr
  1                    JUNCTION      0.00     0.00     0  00:00           0           0       0.000 ltr
  2                    JUNCTION      0.00     0.00     0  00:00           0           0       0.000 ltr
  3                    JUNCTION      0.00  1794.95   259  03:18           0        4.86       0.000
  4                    JUNCTION     63.47    63.47   259  03:00        74.7        74.7      -0.083
  5                    JUNCTION    263.33   263.33   259  03:00         374         374       0.000
  6                    JUNCTION    219.04   544.81   259  03:00         298         747       0.004
  7                    JUNCTION    467.05   467.05   262  21:00         499         499       0.002
  8                    JUNCTION    615.26  2541.05   227  08:09         843    6.67e+03      -0.030
  9                    JUNCTION    154.39  5919.57   262  18:34         125     4.5e+03     -19.117
  10                   JUNCTION    125.63   125.63   262  21:00         116         116       0.000
  11                   JUNCTION     69.12  1156.13   259  03:16        82.4    1.02e+03      -0.027
  12                   JUNCTION    210.79 89664.45   259  03:24         247         265       1.562
  13                   JUNCTION    311.46 59232.19   259  03:33         382    1.38e+03      -0.359
  14                   JUNCTION    498.34  2564.06   262  22:39         485         485      -0.181
  15                   JUNCTION    362.19301295.10   262  22:35         381         879       1.330
  16                   JUNCTION      0.00 44511.90   262  22:39           0       0.848       0.000
  17                   JUNCTION    777.54  2743.75   262  22:41         909    8.26e+03      -0.042
  18                   JUNCTION    205.61  2547.46   262  21:00         195    8.47e+03      -0.009
  19                   JUNCTION   5208.72  7129.14   237  07:00    1.39e+04    1.86e+04      -0.019
  20                   JUNCTION     92.06  1735.72   237  07:00        82.3    1.08e+04       0.002
  21                   JUNCTION     15.50  1449.38   237  07:00        81.5    5.31e+03       1.078
  22                   OUTFALL      60.01  5465.57   237  07:00        51.1    7.92e+03       0.000
  23                   OUTFALL       0.00  1735.61   237  07:00           0    1.08e+04       0.000
  24                   OUTFALL       0.00  1449.38   237  07:00           0    5.25e+03       0.000
  
  
  **********************
  Node Surcharge Summary
  **********************
  
  Surcharging occurs when water rises above the top of the highest conduit.
  ---------------------------------------------------------------------
                                               Max. Height   Min. Depth
                                   Hours       Above Crown    Below Rim
  Node                 Type      Surcharged         Meters       Meters
  ---------------------------------------------------------------------
  3                    JUNCTION        3.91        103.195        0.000
  8                    JUNCTION      348.21         72.359        0.000
  9                    JUNCTION     1166.83         78.392        0.000
  12                   JUNCTION       22.77        200.000        0.000
  13                   JUNCTION       21.37        200.000        0.000
  15                   JUNCTION        5.47        200.000        0.000
  16                   JUNCTION        4.60        200.000        0.000
  17                   JUNCTION       70.20        172.289        0.000
  18                   JUNCTION      500.02        158.319        0.000
  19                   JUNCTION     4398.01        166.903        0.000
  20                   JUNCTION     2938.27        139.467        0.000
  21                   JUNCTION     7822.64         21.545        0.000
  
  
  *********************
  Node Flooding Summary
  *********************
  
  Flooding refers to all water that overflows a node, whether it ponds or not.
  --------------------------------------------------------------------------
                                                             Total   Maximum
                                 Maximum   Time of Max       Flood    Ponded
                        Hours       Rate    Occurrence      Volume     Depth
  Node                 Flooded       LPS   days hr:min    10^6 ltr    Meters
  --------------------------------------------------------------------------
  12                      0.03  13408.23    259  03:20       0.723   200.000
  13                      0.07  36979.84    259  03:33       3.358   200.000
  15                      0.03  44074.90    262  22:35       4.333   200.000
  16                      0.01  23248.47    262  22:39       0.176   200.000
  
  
  ***********************
  Outfall Loading Summary
  ***********************
  
  -----------------------------------------------------------
                         Flow       Avg       Max       Total
                         Freq      Flow      Flow      Volume
  Outfall Node           Pcnt       LPS       LPS    10^6 ltr
  -----------------------------------------------------------
  22                    84.27    544.83   5465.57    7922.899
  23                    99.51    481.52   1735.61   10754.867
  24                    97.48    287.72   1449.38    5251.826
  -----------------------------------------------------------
  System                93.75   1314.07   1449.38   23929.592
  
  
  ********************
  Link Flow Summary
  ********************
  
  -----------------------------------------------------------------------------
                                 Maximum  Time of Max   Maximum    Max/    Max/
                                  |Flow|   Occurrence   |Veloc|    Full    Full
  Link                 Type          LPS  days hr:min     m/sec    Flow   Depth
  -----------------------------------------------------------------------------
  0                    CONDUIT      0.00     0  00:00      0.00    0.00    0.00
  1                    CONDUIT      0.00     0  00:00      0.00    0.00    0.50
  2                    CONDUIT      0.00     0  00:00      0.00    0.00    0.00
  3                    CONDUIT   1794.95   259  03:18      2.51    3.05    1.00
  4                    CONDUIT  89469.59   259  03:24    >50.00  13610.55    1.00
  5                    CONDUIT     62.83   259  03:03      0.22    0.00    0.06
  6                    CONDUIT    263.27   259  03:00      1.43    0.04    0.29
  7                    CONDUIT    535.75   259  03:11      1.64    0.38    0.54
  8                    CONDUIT    656.77   262  21:15      0.96    0.57    0.82
  9                    CONDUIT   1165.06   259  03:25      1.86    0.75    0.82
  10                   CONDUIT    465.01   262  21:01      0.82    0.27    0.68
  11                   CONDUIT   2429.58   227  08:09      3.11  494.33    1.00
  12                   CONDUIT   5604.48   262  18:34      1.90    0.00    0.50
  13                   CONDUIT   1436.42   262  18:58      1.95    1.22    1.00
  14                   CONDUIT   1257.46   262  22:41      1.60    1.25    1.00
  15                   CONDUIT   2349.36   262  22:39      2.99    1.03    1.00
  16                   CONDUIT   1449.04   259  04:07      1.84    1.10    1.00
  17                   CONDUIT   1205.43   262  21:14      1.53    1.56    1.00
  18                   CONDUIT   1691.12   237  07:00      2.15  297.98    1.00
  19                   CONDUIT   2246.60   262  22:39      3.04    1.33    0.99
  20                   CONDUIT 300133.70   262  22:35    >50.00   75.39    1.00
  21                   CONDUIT   1434.36   237  07:00      1.83    1.49    1.00
  22                   CONDUIT   5437.81   237  07:00      6.92    2.87    1.00
  23                   CONDUIT   1735.61   237  07:00      2.37    2.71    0.88
  24                   CONDUIT   1449.38   237  07:00      2.18    0.63    0.79
  
  
  ***************************
  Flow Classification Summary
  ***************************
  
  -------------------------------------------------------------------------------------
                      Adjusted    ---------- Fraction of Time in Flow Class ---------- 
                       /Actual         Up    Down  Sub   Sup   Up    Down  Norm  Inlet 
  Conduit               Length    Dry  Dry   Dry   Crit  Crit  Crit  Crit  Ltd   Ctrl  
  -------------------------------------------------------------------------------------
  0                       1.00   1.00  0.00  0.00  0.00  0.00  0.00  0.00  0.00  0.00
  1                       1.00   0.00  1.00  0.00  0.00  0.00  0.00  0.00  0.00  0.00
  2                       1.00   1.00  0.00  0.00  0.00  0.00  0.00  0.00  0.00  0.00
  3                       1.00   0.00  0.88  0.00  0.12  0.00  0.00  0.00  0.31  0.00
  4                       1.00   0.00  0.00  0.00  1.00  0.00  0.00  0.00  0.00  0.00
  5                       1.00   0.00  0.01  0.00  0.98  0.00  0.00  0.00  0.99  0.00
  6                       1.00   0.00  0.00  0.00  0.93  0.07  0.00  0.00  0.95  0.00
  7                       1.00   0.00  0.00  0.00  0.55  0.44  0.00  0.00  0.03  0.00
  8                       1.00   0.00  0.00  0.00  1.00  0.00  0.00  0.00  0.96  0.00
  9                       1.00   0.00  0.00  0.00  0.99  0.00  0.00  0.00  0.99  0.00
  10                      1.00   0.00  0.00  0.00  0.99  0.00  0.00  0.00  0.99  0.00
  11                      1.00   0.00  0.00  0.00  1.00  0.00  0.00  0.00  0.00  0.00
  12                      1.00   0.00  0.61  0.00  0.38  0.00  0.00  0.00  0.97  0.00
  13                      1.00   0.00  0.00  0.00  0.99  0.00  0.00  0.00  0.01  0.00
  14                      1.00   0.00  0.00  0.00  1.00  0.00  0.00  0.00  0.98  0.00
  15                      1.00   0.00  0.00  0.00  0.16  0.83  0.00  0.00  0.96  0.00
  16                      1.00   0.00  0.00  0.00  1.00  0.00  0.00  0.00  0.99  0.00
  17                      1.00   0.00  0.00  0.00  1.00  0.00  0.00  0.00  0.85  0.00
  18                      1.00   0.00  0.00  0.00  1.00  0.00  0.00  0.00  0.00  0.00
  19                      1.00   0.00  0.00  0.00  1.00  0.00  0.00  0.00  0.99  0.00
  20                      1.00   0.00  0.99  0.00  0.00  0.00  0.00  0.00  0.22  0.00
  21                      1.00   0.00  0.00  0.00  1.00  0.00  0.00  0.00  0.92  0.00
  22                      1.00   0.00  0.55  0.00  0.44  0.00  0.00  0.00  0.33  0.00
  23                      1.00   0.00  0.00  0.00  1.00  0.00  0.00  0.00  0.00  0.00
  24                      1.00   0.00  0.01  0.00  0.99  0.00  0.00  0.00  0.21  0.00
  
  
  *************************
  Conduit Surcharge Summary
  *************************
  
  ----------------------------------------------------------------------------
                                                           Hours        Hours 
                         --------- Hours Full --------   Above Full   Capacity
  Conduit                Both Ends  Upstream  Dnstream   Normal Flow   Limited
  ----------------------------------------------------------------------------
  3                           3.90      3.90     22.37      0.11         0.01
  4                          20.63     22.73     21.36   2435.23        16.00
  8                           0.01      0.01    348.20      0.01         0.01
  9                           0.01      0.01     21.36      0.01         0.01
  10                          0.01      0.01   2300.82      0.01         0.01
  11                        348.12   2300.82    348.12   7332.16       348.12
  12                          0.01      0.01   1081.41      0.01         0.01
  13                         70.17    348.20     70.17    279.67        42.33
  14                          5.47      5.47     70.20      0.05         0.05
  15                         70.18     70.18    500.02      1.03         1.31
  16                         21.36     21.36   4397.83      0.11         0.11
  17                        500.02    500.02   4397.83    117.19       120.27
  18                       2938.26   4397.83   2938.26   7572.23      2938.26
  19                          0.01      0.01      5.47      0.03         0.01
  20                          4.58      4.59      5.36      0.05         1.34
  21                        500.02    500.02   7822.64    263.71       276.93
  22                         75.45     75.45   5097.83    259.78         0.01
  23                          0.01   2938.21      0.01   2675.82         0.01
  24                          0.01      0.01   7820.00      0.01         0.01
  

  Analysis begun on:  Wed Apr 15 03:50:27 2020
  Analysis ended on:  Wed Apr 15 03:52:00 2020
  Total elapsed time: 00:01:33