
  EPA STORM WATER MANAGEMENT MODEL - VERSION 5.1 (Build 5.1.013)
  --------------------------------------------------------------

  Template input file for Gottesacker karst system.  
  Based on input files created by Zhao Chen. 
  Modified by Chloe Fandel: 
  
  WARNING 04: minimum elevation drop used for Conduit 3
  WARNING 04: minimum elevation drop used for Conduit 4
  WARNING 04: minimum elevation drop used for Conduit 11
  WARNING 04: minimum elevation drop used for Conduit 12
  WARNING 04: minimum elevation drop used for Conduit 15
  
  *********************************************************
  NOTE: The summary statistics displayed in this report are
  based on results found at every computational time step,  
  not just on results from each reporting time step.
  *********************************************************
  
  ****************
  Analysis Options
  ****************
  Flow Units ............... LPS
  Process Models:
    Rainfall/Runoff ........ YES
    RDII ................... NO
    Snowmelt ............... NO
    Groundwater ............ NO
    Flow Routing ........... YES
    Ponding Allowed ........ NO
    Water Quality .......... NO
  Infiltration Method ...... HORTON
  Flow Routing Method ...... DYNWAVE
  Surcharge Method ......... EXTRAN
  Starting Date ............ 11/14/2013 00:00:00
  Ending Date .............. 10/11/2014 00:00:00
  Antecedent Dry Days ...... 0.0
  Report Time Step ......... 01:00:00
  Wet Time Step ............ 00:30:00
  Dry Time Step ............ 01:00:00
  Routing Time Step ........ 30.00 sec
  Variable Time Step ....... YES
  Maximum Trials ........... 8
  Number of Threads ........ 4
  Head Tolerance ........... 0.001524 m
  
  
  **************************        Volume         Depth
  Runoff Quantity Continuity     hectare-m            mm
  **************************     ---------       -------
  Total Precipitation ......      1860.586       693.149
  Evaporation Loss .........         0.000         0.000
  Infiltration Loss ........         0.000         0.000
  Surface Runoff ...........      1857.510       692.003
  Final Storage ............         3.294         1.227
  Continuity Error (%) .....        -0.012
  
  
  **************************        Volume        Volume
  Flow Routing Continuity        hectare-m      10^6 ltr
  **************************     ---------     ---------
  Dry Weather Inflow .......         0.000         0.000
  Wet Weather Inflow .......      1857.497     18575.167
  Groundwater Inflow .......         0.000         0.000
  RDII Inflow ..............         0.000         0.000
  External Inflow ..........         0.715         7.146
  External Outflow .........      1860.284     18603.038
  Flooding Loss ............         1.217        12.168
  Evaporation Loss .........         0.000         0.000
  Exfiltration Loss ........         0.000         0.000
  Initial Stored Volume ....         0.000         0.000
  Final Stored Volume ......         1.658        16.581
  Continuity Error (%) .....        -0.266
  
  
  ***************************
  Time-Step Critical Elements
  ***************************
  Link 16 (89.36%)
  Link 18 (3.63%)
  
  
  ********************************
  Highest Flow Instability Indexes
  ********************************
  Link 15 (35)
  Link 18 (35)
  Link 4 (33)
  Link 12 (30)
  Link 3 (29)
  
  
  *************************
  Routing Time Step Summary
  *************************
  Minimum Time Step           :     0.50 sec
  Average Time Step           :    17.64 sec
  Maximum Time Step           :    30.00 sec
  Percent in Steady State     :     0.30
  Average Iterations per Step :     3.55
  Percent Not Converging      :    18.14
  
  
  ***************************
  Subcatchment Runoff Summary
  ***************************
  
  ------------------------------------------------------------------------------------------------------------------------------
                            Total      Total      Total      Total     Imperv       Perv      Total       Total     Peak  Runoff
                           Precip      Runon       Evap      Infil     Runoff     Runoff     Runoff      Runoff   Runoff   Coeff
  Subcatchment                 mm         mm         mm         mm         mm         mm         mm    10^6 ltr      LPS
  ------------------------------------------------------------------------------------------------------------------------------
  S1                         0.00       0.00       0.00       0.00       0.00       0.00       0.00        0.00     0.00   0.000
  S2                         0.00       0.00       0.00       0.00       0.00       0.00       0.00        0.00     0.00   0.000
  S3                         0.00       0.00       0.00       0.00       0.00       0.00       0.00        0.00     0.00   0.000
  S4                      1061.54       0.00       0.00       0.00    1061.69       0.00    1061.69      368.94   262.37   1.000
  S5                      1385.10       0.00       0.00       0.00    1385.52       0.00    1385.52      498.79   466.98   1.000
  S6                       977.59       0.00       0.00       0.00     978.10       0.00     978.10      100.26    95.18   1.001
  S7                      1292.86       0.00       0.00       0.00    1293.18       0.00    1293.18      484.95   498.34   1.000
  S8                       936.91       0.00       0.00       0.00     936.87       0.00     936.87      592.57   423.47   1.000
  S9                      1448.24       0.00       0.00       0.00    1448.36       0.00    1448.36     1100.76   905.01   1.000
  S10                      968.87       0.00       0.00       0.00     966.94       0.00     966.94    14774.92  5766.92   0.998
  S11                        0.00       0.00       0.00       0.00       0.00       0.00       0.00        0.00     0.00   0.000
  S12                     1364.67       0.00       0.00       0.00    1365.98       0.00    1365.98      102.45   112.96   1.001
  S13                     1369.60       0.00       0.00       0.00    1371.06       0.00    1371.06       82.26    92.06   1.001
  S14                        0.00       0.00       0.00       0.00       0.00       0.00       0.00        0.00     0.00   0.000
  S15                        0.00       0.00       0.00       0.00       0.00       0.00       0.00        0.00     0.00   0.000
  S16                       98.86       0.00       0.00       0.00      98.41       0.00      98.41      418.25   117.41   0.995
  S17                     1359.91       0.00       0.00       0.00    1361.72       0.00    1361.72       51.06    60.01   1.001
  S18                        0.00       0.00       0.00       0.00       0.00       0.00       0.00        0.00     0.00   0.000
  S19                        0.00       0.00       0.00       0.00       0.00       0.00       0.00        0.00     0.00   0.000
  
  
  ******************
  Node Depth Summary
  ******************
  
  ---------------------------------------------------------------------------------
                                 Average  Maximum  Maximum  Time of Max    Reported
                                   Depth    Depth      HGL   Occurrence   Max Depth
  Node                 Type       Meters   Meters   Meters  days hr:min      Meters
  ---------------------------------------------------------------------------------
  0                    JUNCTION     0.00     0.00  1872.50     0  00:00        0.00
  1                    JUNCTION     0.00     0.00  1432.50     0  00:00        0.00
  2                    JUNCTION     0.00     0.00  1405.00     0  00:00        0.00
  3                    JUNCTION     0.03     0.15  1955.15   259  03:08        0.15
  4                    JUNCTION     0.04     0.24  1762.74   262  21:02        0.24
  5                    JUNCTION     0.04     0.21  1652.71   262  21:09        0.21
  6                    JUNCTION     0.03     0.20  1680.20   262  21:02        0.20
  7                    JUNCTION     0.07     0.33  1322.83   262  21:11        0.33
  8                    JUNCTION     0.32    44.78  1174.78    77  06:49        3.13
  9                    JUNCTION    22.43   201.00  1303.50    77  06:10       70.70
  10                   JUNCTION    20.86   172.34  1274.84    77  06:25       30.78
  11                   JUNCTION    21.81   201.00  1303.50    77  06:15       54.90
  12                   JUNCTION    21.81   201.00  1303.50    77  06:10       54.92
  13                   JUNCTION     0.04     1.26  1131.26    77  07:00        1.26
  14                   JUNCTION     6.49    56.32  1131.32    77  06:49       56.25
  15                   JUNCTION    13.20   125.40  1145.40    77  06:57      110.23
  16                   OUTFALL      0.35     1.00  1121.00    77  06:10        0.70
  17                   OUTFALL      0.09     0.84  1080.84    77  06:49        0.84
  18                   OUTFALL      0.08     1.00  1036.00    77  06:57        1.00
  
  
  *******************
  Node Inflow Summary
  *******************
  
  -------------------------------------------------------------------------------------------------
                                  Maximum  Maximum                  Lateral       Total        Flow
                                  Lateral    Total  Time of Max      Inflow      Inflow     Balance
                                   Inflow   Inflow   Occurrence      Volume      Volume       Error
  Node                 Type           LPS      LPS  days hr:min    10^6 ltr    10^6 ltr     Percent
  -------------------------------------------------------------------------------------------------
  0                    JUNCTION      0.00     0.00     0  00:00           0           0       0.000 ltr
  1                    JUNCTION      0.00     0.00     0  00:00           0           0       0.000 ltr
  2                    JUNCTION      0.00     0.00     0  00:00           0           0       0.000 ltr
  3                    JUNCTION    263.34   263.34   259  03:00         371         371      -0.018
  4                    JUNCTION    467.05   467.05   262  21:00         499         499       0.000
  5                    JUNCTION     95.67   756.41   262  21:02         102         972       0.010
  6                    JUNCTION    498.34   498.34   262  21:00         485         485       0.000
  7                    JUNCTION    423.95  1657.17   262  21:03         594    2.05e+03      -0.032
  8                    JUNCTION    905.01256441.31    77  06:48     1.1e+03    4.91e+03       0.070
  9                    JUNCTION   5766.97334885.42    77  06:17    1.48e+04    1.48e+04      -0.308
  10                   JUNCTION      0.00291806.53    77  06:10           0    1.66e+04       0.087
  11                   JUNCTION    112.96415092.13    77  06:58         102    5.97e+03       0.186
  12                   JUNCTION     92.06 38076.18    77  06:45        82.3        89.1       0.000
  13                   JUNCTION      0.00 51727.85    77  06:55           0    3.33e+03       0.012
  14                   JUNCTION      0.00  5634.31    77  06:49           0    2.16e+03      -0.064
  15                   JUNCTION    117.41 14977.73    77  06:56         418    1.59e+03       0.125
  16                   OUTFALL      60.01 16011.99    77  06:21        51.1    1.49e+04       0.000
  17                   OUTFALL       0.00  2186.01    77  06:49           0    2.16e+03       0.000
  18                   OUTFALL       0.00  6032.86    77  06:57           0    1.59e+03       0.000
  
  
  **********************
  Node Surcharge Summary
  **********************
  
  Surcharging occurs when water rises above the top of the highest conduit.
  ---------------------------------------------------------------------
                                               Max. Height   Min. Depth
                                   Hours       Above Crown    Below Rim
  Node                 Type      Surcharged         Meters       Meters
  ---------------------------------------------------------------------
  8                    JUNCTION        0.05         40.777        0.000
  9                    JUNCTION     7658.02        200.000        0.000
  10                   JUNCTION     7275.66        168.345        0.000
  11                   JUNCTION     7658.42        200.000        0.000
  12                   JUNCTION     7658.16        200.000        0.000
  14                   JUNCTION     6089.36         52.322        0.000
  15                   JUNCTION     6089.05        121.403        0.000
  
  
  *********************
  Node Flooding Summary
  *********************
  
  Flooding refers to all water that overflows a node, whether it ponds or not.
  --------------------------------------------------------------------------
                                                             Total   Maximum
                                 Maximum   Time of Max       Flood    Ponded
                        Hours       Rate    Occurrence      Volume     Depth
  Node                 Flooded       LPS   days hr:min    10^6 ltr    Meters
  --------------------------------------------------------------------------
  9                       0.03  51000.46     77  06:49       2.757   200.000
  11                      0.09 211359.02     77  06:58       7.974   200.000
  12                      0.06  13247.29     77  06:47       1.359   200.000
  
  
  ***********************
  Outfall Loading Summary
  ***********************
  
  -----------------------------------------------------------
                         Flow       Avg       Max       Total
                         Freq      Flow      Flow      Volume
  Outfall Node           Pcnt       LPS       LPS    10^6 ltr
  -----------------------------------------------------------
  16                    93.98    764.39  16011.99   14854.039
  17                    81.76    163.53   2186.01    2162.909
  18                    80.55    120.68   6032.86    1586.580
  -----------------------------------------------------------
  System                85.43   1048.59   6032.86   18603.528
  
  
  ********************
  Link Flow Summary
  ********************
  
  -----------------------------------------------------------------------------
                                 Maximum  Time of Max   Maximum    Max/    Max/
                                  |Flow|   Occurrence   |Veloc|    Full    Full
  Link                 Type          LPS  days hr:min     m/sec    Flow   Depth
  -----------------------------------------------------------------------------
  0                    CONDUIT      0.00     0  00:00      0.00    0.00    0.00
  1                    CONDUIT      0.00     0  00:00      0.00    0.00    0.00
  2                    CONDUIT      0.00     0  00:00      0.00    0.00    0.50
  3                    CONDUIT 291805.02    77  06:10    >50.00  29685.93    1.00
  4                    CONDUIT 414015.05    77  06:58    >50.00  42118.60    1.00
  5                    CONDUIT    260.28   259  03:08      1.35    0.00    0.04
  6                    CONDUIT    462.03   262  21:03      1.64    0.01    0.06
  7                    CONDUIT    748.33   262  21:09      2.11    0.01    0.07
  8                    CONDUIT    492.70   262  21:03      1.37    0.01    0.07
  9                    CONDUIT   1645.45   262  21:11      1.39    0.01    0.50
  10                   CONDUIT 256441.02    77  06:48     24.81    5.29    1.00
  11                   CONDUIT  51727.85    77  06:55      6.47  302.90    0.65
  12                   CONDUIT  95386.32    77  06:44    >50.00  11539.88    1.00
  13                   CONDUIT   5634.31    77  06:49      0.77    0.04    0.66
  14                   CONDUIT  14977.33    77  06:56      1.84    0.21    0.66
  15                   CONDUIT 150617.92    77  06:11    >50.00  26539.64    1.00
  16                   CONDUIT  16011.99    77  06:21     20.39    7.39    1.00
  17                   CONDUIT   2186.01    77  06:49      2.89    3.39    0.92
  18                   CONDUIT   6032.86    77  06:57      7.68    2.62    1.00
  
  
  ***************************
  Flow Classification Summary
  ***************************
  
  -------------------------------------------------------------------------------------
                      Adjusted    ---------- Fraction of Time in Flow Class ---------- 
                       /Actual         Up    Down  Sub   Sup   Up    Down  Norm  Inlet 
  Conduit               Length    Dry  Dry   Dry   Crit  Crit  Crit  Crit  Ltd   Ctrl  
  -------------------------------------------------------------------------------------
  0                       1.00   1.00  0.00  0.00  0.00  0.00  0.00  0.00  0.00  0.00
  1                       1.00   1.00  0.00  0.00  0.00  0.00  0.00  0.00  0.00  0.00
  2                       1.00   0.00  1.00  0.00  0.00  0.00  0.00  0.00  0.00  0.00
  3                       1.00   0.00  0.00  0.00  1.00  0.00  0.00  0.00  0.00  0.00
  4                       1.00   0.00  0.00  0.00  1.00  0.00  0.00  0.00  0.00  0.00
  5                       1.00   0.00  0.00  0.00  0.68  0.32  0.00  0.00  0.94  0.00
  6                       1.00   0.00  0.00  0.00  0.70  0.30  0.00  0.00  0.32  0.00
  7                       1.00   0.00  0.00  0.00  0.44  0.56  0.00  0.00  0.99  0.00
  8                       1.00   0.00  0.00  0.00  0.98  0.02  0.00  0.00  0.99  0.00
  9                       1.00   0.00  0.00  0.00  0.96  0.03  0.00  0.00  0.99  0.00
  10                      1.00   0.00  0.00  0.00  1.00  0.00  0.00  0.00  0.86  0.00
  11                      1.00   0.00  0.00  0.00  1.00  0.00  0.00  0.00  0.00  0.00
  12                      1.00   0.00  0.00  0.00  1.00  0.00  0.00  0.00  0.00  0.00
  13                      1.00   0.00  0.03  0.00  0.97  0.00  0.00  0.00  0.98  0.00
  14                      1.00   0.00  0.03  0.00  0.97  0.00  0.00  0.00  0.99  0.00
  15                      1.00   0.00  0.00  0.00  1.00  0.00  0.00  0.00  0.00  0.00
  16                      1.00   0.00  0.06  0.00  0.94  0.00  0.00  0.00  0.02  0.00
  17                      1.00   0.00  0.15  0.00  0.84  0.00  0.00  0.00  0.15  0.00
  18                      1.00   0.00  0.15  0.00  0.84  0.00  0.00  0.00  0.19  0.00
  
  
  *************************
  Conduit Surcharge Summary
  *************************
  
  ----------------------------------------------------------------------------
                                                           Hours        Hours 
                         --------- Hours Full --------   Above Full   Capacity
  Conduit                Both Ends  Upstream  Dnstream   Normal Flow   Limited
  ----------------------------------------------------------------------------
  3                        7657.95   7657.95   7658.64   6901.89      7036.17
  4                        7657.63   7657.95   7658.29   6403.54      6440.81
  9                           0.01      0.01      0.04      0.01         0.01
  10                          0.04      0.04   7275.64      0.08         0.02
  11                          0.01      0.04      0.01    738.49         0.01
  12                       7658.27   7658.64   7658.29   6613.69        44.85
  13                          0.01      0.01   6089.36      0.01         0.01
  14                          0.01      0.01   6089.05      0.01         0.01
  15                       7657.55   7658.29   7657.74   1096.40      1094.57
  16                          0.16      0.16   7208.07      0.25         0.01
  17                          0.01      0.01   6089.36    317.05         0.01
  18                          1.86      1.86   6089.05     14.54         0.01
  

  Analysis begun on:  Tue Apr 14 17:34:09 2020
  Analysis ended on:  Tue Apr 14 17:35:27 2020
  Total elapsed time: 00:01:18