
  EPA STORM WATER MANAGEMENT MODEL - VERSION 5.1 (Build 5.1.013)
  --------------------------------------------------------------

  Template input file for Gottesacker karst system.  
  Based on input files created by Zhao Chen. 
  Modified by Chloe Fandel: 
  
  WARNING 08: elevation drop exceeds length for Conduit 2
  WARNING 04: minimum elevation drop used for Conduit 3
  WARNING 04: minimum elevation drop used for Conduit 6
  WARNING 08: elevation drop exceeds length for Conduit 7
  WARNING 08: elevation drop exceeds length for Conduit 8
  WARNING 04: minimum elevation drop used for Conduit 15
  WARNING 04: minimum elevation drop used for Conduit 17
  WARNING 04: minimum elevation drop used for Conduit 18
  WARNING 04: minimum elevation drop used for Conduit 28
  
  *********************************************************
  NOTE: The summary statistics displayed in this report are
  based on results found at every computational time step,  
  not just on results from each reporting time step.
  *********************************************************
  
  ****************
  Analysis Options
  ****************
  Flow Units ............... LPS
  Process Models:
    Rainfall/Runoff ........ YES
    RDII ................... NO
    Snowmelt ............... NO
    Groundwater ............ NO
    Flow Routing ........... YES
    Ponding Allowed ........ NO
    Water Quality .......... NO
  Infiltration Method ...... HORTON
  Flow Routing Method ...... DYNWAVE
  Surcharge Method ......... EXTRAN
  Starting Date ............ 11/14/2013 00:00:00
  Ending Date .............. 10/11/2014 00:00:00
  Antecedent Dry Days ...... 0.0
  Report Time Step ......... 01:00:00
  Wet Time Step ............ 00:30:00
  Dry Time Step ............ 01:00:00
  Routing Time Step ........ 30.00 sec
  Variable Time Step ....... YES
  Maximum Trials ........... 8
  Number of Threads ........ 4
  Head Tolerance ........... 0.001524 m
  
  
  **************************        Volume         Depth
  Runoff Quantity Continuity     hectare-m            mm
  **************************     ---------       -------
  Total Precipitation ......      1876.070       691.193
  Evaporation Loss .........         0.000         0.000
  Infiltration Loss ........         0.000         0.000
  Surface Runoff ...........      1873.345       690.189
  Final Storage ............         3.029         1.116
  Continuity Error (%) .....        -0.016
  
  
  **************************        Volume        Volume
  Flow Routing Continuity        hectare-m      10^6 ltr
  **************************     ---------     ---------
  Dry Weather Inflow .......         0.000         0.000
  Wet Weather Inflow .......      1873.342     18733.620
  Groundwater Inflow .......         0.000         0.000
  RDII Inflow ..............         0.000         0.000
  External Inflow ..........         1.698        16.983
  External Outflow .........      3098.399     30984.312
  Flooding Loss ............        11.010       110.099
  Evaporation Loss .........         0.000         0.000
  Exfiltration Loss ........         0.000         0.000
  Initial Stored Volume ....         0.000         0.000
  Final Stored Volume ......         1.881        18.813
  Continuity Error (%) .....       -65.932
  
  
  *************************
  Highest Continuity Errors
  *************************
  Node 14 (-1801.32%)
  Node 16 (-68.75%)
  Node 11 (-12.78%)
  Node 13 (-4.68%)
  Node 15 (-2.25%)
  
  
  ***************************
  Time-Step Critical Elements
  ***************************
  Link 31 (87.55%)
  Link 18 (9.52%)
  Link 29 (1.14%)
  
  
  ********************************
  Highest Flow Instability Indexes
  ********************************
  Link 15 (115)
  Link 19 (114)
  Link 13 (109)
  Link 14 (95)
  Link 18 (90)
  
  
  *************************
  Routing Time Step Summary
  *************************
  Minimum Time Step           :     0.50 sec
  Average Time Step           :    13.31 sec
  Maximum Time Step           :    30.00 sec
  Percent in Steady State     :     0.30
  Average Iterations per Step :     5.72
  Percent Not Converging      :    57.88
  
  
  ***************************
  Subcatchment Runoff Summary
  ***************************
  
  ------------------------------------------------------------------------------------------------------------------------------
                            Total      Total      Total      Total     Imperv       Perv      Total       Total     Peak  Runoff
                           Precip      Runon       Evap      Infil     Runoff     Runoff     Runoff      Runoff   Runoff   Coeff
  Subcatchment                 mm         mm         mm         mm         mm         mm         mm    10^6 ltr      LPS
  ------------------------------------------------------------------------------------------------------------------------------
  S1                         0.00       0.00       0.00       0.00       0.00       0.00       0.00        0.00     0.00   0.000
  S2                         0.00       0.00       0.00       0.00       0.00       0.00       0.00        0.00     0.00   0.000
  S4                         0.00       0.00       0.00       0.00       0.00       0.00       0.00        0.00     0.00   0.000
  S7                         0.00       0.00       0.00       0.00       0.00       0.00       0.00        0.00     0.00   0.000
  S8                      1031.42       0.00       0.00       0.00    1032.06       0.00    1032.06       64.50    55.73   1.001
  S9                      1025.22       0.00       0.00       0.00    1025.31       0.00    1025.31      371.68   262.35   1.000
  S10                     1385.10       0.00       0.00       0.00    1385.52       0.00    1385.52      498.79   466.98   1.000
  S11                     1067.22       0.00       0.00       0.00    1067.43       0.00    1067.43      304.22   223.10   1.000
  S12                      986.20       0.00       0.00       0.00     986.34       0.00     986.34      367.42   312.39   1.000
  S13                     1095.88       0.00       0.00       0.00    1096.03       0.00    1096.03      482.26   414.04   1.000
  S14                      977.89       0.00       0.00       0.00     978.35       0.00     978.35      134.52   153.20   1.000
  S15                     1323.24       0.00       0.00       0.00    1324.30       0.00    1324.30      115.88   125.53   1.001
  S16                     1001.87       0.00       0.00       0.00    1002.10       0.00    1002.10      283.10   278.35   1.000
  S17                     1351.68       0.00       0.00       0.00    1352.75       0.00    1352.75      121.75   137.41   1.001
  S18                      973.25       0.00       0.00       0.00     974.33       0.00     974.33       29.23    35.76   1.001
  S19                     1574.01       0.00       0.00       0.00    1574.39       0.00    1574.39      625.82   478.24   1.000
  S20                     1292.86       0.00       0.00       0.00    1293.18       0.00    1293.18      484.95   498.34   1.000
  S21                     1129.79       0.00       0.00       0.00    1130.01       0.00    1130.01      449.18   373.16   1.000
  S22                     1148.78       0.00       0.00       0.00    1148.42       0.00    1148.42     1714.03  1002.50   1.000
  S23                      770.39       0.00       0.00       0.00     770.36       0.00     770.36      381.33   362.19   1.000
  S24                        0.00       0.00       0.00       0.00       0.00       0.00       0.00        0.00     0.00   0.000
  S25                      809.29       0.00       0.00       0.00     807.48       0.00     807.48    12090.03  4540.50   0.998
  S26                     1369.60       0.00       0.00       0.00    1371.06       0.00    1371.06       82.26    92.06   1.001
  S27                       22.11       0.00       0.00       0.00      21.88       0.00      21.88       81.55    15.50   0.989
  S28                     1359.91       0.00       0.00       0.00    1361.72       0.00    1361.72       51.06    60.01   1.001
  S29                        0.00       0.00       0.00       0.00       0.00       0.00       0.00        0.00     0.00   0.000
  S30                        0.00       0.00       0.00       0.00       0.00       0.00       0.00        0.00     0.00   0.000
  
  
  ******************
  Node Depth Summary
  ******************
  
  ---------------------------------------------------------------------------------
                                 Average  Maximum  Maximum  Time of Max    Reported
                                   Depth    Depth      HGL   Occurrence   Max Depth
  Node                 Type       Meters   Meters   Meters  days hr:min      Meters
  ---------------------------------------------------------------------------------
  0                    JUNCTION     0.00     0.00  1872.50     0  00:00        0.00
  1                    JUNCTION     0.00     0.00  1707.50     0  00:00        0.00
  2                    JUNCTION     0.00     0.00  1735.00     0  00:00        0.00
  3                    JUNCTION     0.00     0.00  1707.50     0  00:00        0.00
  4                    JUNCTION     0.00     0.00  1735.00     0  00:00        0.00
  5                    JUNCTION     0.00     0.00  1762.50     0  00:00        0.00
  6                    JUNCTION     0.59    66.93  1499.43   259  04:09       66.51
  7                    JUNCTION     0.01     0.07  1955.07   259  03:03        0.07
  8                    JUNCTION     0.02     0.12  1927.62   259  03:01        0.12
  9                    JUNCTION     0.03     2.88  1765.38   259  06:50        2.87
  10                   JUNCTION     0.04     0.20  1790.20   259  03:08        0.20
  11                   JUNCTION    37.76   140.38  1765.38   259  06:50      140.37
  12                   JUNCTION     0.46    58.05  1765.55   259  06:47       58.04
  13                   JUNCTION    10.42   112.88  1765.38   259  06:50      112.87
  14                   JUNCTION     1.01    85.37  1765.37   259  06:50       85.37
  15                   JUNCTION    10.41   112.88  1765.38   259  06:50      112.87
  16                   JUNCTION     1.01    85.11  1765.11   259  06:49       85.10
  17                   JUNCTION     8.31   111.39  1763.89   259  06:47      111.38
  18                   JUNCTION     8.14   149.37  1499.37   259  04:09      149.01
  19                   JUNCTION     0.16    11.81  1691.81   259  03:21       11.50
  20                   JUNCTION    29.96   162.15  1704.65   259  04:09      160.70
  21                   JUNCTION    31.27   204.00  1499.00   169  02:02      204.00
  22                   JUNCTION    84.84   204.00  1691.50   169  01:54      204.00
  23                   JUNCTION    20.13   121.70  1691.70   259  03:21      121.51
  24                   JUNCTION    11.31    90.37  1192.87   237  07:00       90.36
  25                   JUNCTION     8.51    74.98  1177.48   237  07:00       74.97
  26                   JUNCTION    16.99    19.84  1039.84   237  07:00       19.84
  27                   OUTFALL      0.20     1.00  1121.00   237  05:08        1.00
  28                   OUTFALL      0.30     0.66  1080.66   237  07:00        0.66
  29                   OUTFALL      0.32     0.48  1035.48   237  07:00        0.48
  
  
  *******************
  Node Inflow Summary
  *******************
  
  -------------------------------------------------------------------------------------------------
                                  Maximum  Maximum                  Lateral       Total        Flow
                                  Lateral    Total  Time of Max      Inflow      Inflow     Balance
                                   Inflow   Inflow   Occurrence      Volume      Volume       Error
  Node                 Type           LPS      LPS  days hr:min    10^6 ltr    10^6 ltr     Percent
  -------------------------------------------------------------------------------------------------
  0                    JUNCTION      0.00     0.00     0  00:00           0           0       0.000 ltr
  1                    JUNCTION      0.00     0.00     0  00:00           0           0       0.000 ltr
  2                    JUNCTION      0.00     0.00     0  00:00           0           0       0.000 ltr
  3                    JUNCTION      0.00     0.00     0  00:00           0           0       0.000 ltr
  4                    JUNCTION      0.00     0.00     0  00:00           0           0       0.000 ltr
  5                    JUNCTION      0.00     0.00     0  00:00           0           0       0.000 ltr
  6                    JUNCTION      0.00  1256.40   259  03:00           0         141       0.000
  7                    JUNCTION     56.81    56.81   259  03:00        66.6        66.6      -0.092
  8                    JUNCTION    263.34   263.34   259  03:00         374         374       0.000
  9                    JUNCTION    467.05   904.56   259  03:47         499         499       0.001
  10                   JUNCTION    224.06   542.73   259  03:00         306         746       0.009
  11                   JUNCTION    312.85  1650.35   275  10:40         369    1.63e+03     -11.330
  12                   JUNCTION    414.39   414.39   262  21:00         484         484       0.000
  13                   JUNCTION    153.30 13677.92   221  16:52         135    1.34e+04      -4.471
  14                   JUNCTION    125.63  1263.23   291  03:52         116         604     -94.740
  15                   JUNCTION    278.87  6282.46   235  20:42         285    1.46e+04      -2.205
  16                   JUNCTION    137.49   627.88   262  18:43         122         399     -40.740
  17                   JUNCTION     37.30  2943.71   235  20:45          31    1.51e+04      -0.035
  18                   JUNCTION    478.24  1572.95   262  21:00         626    1.46e+03      -0.065
  19                   JUNCTION    498.34   913.16   262  21:00         485         495      -0.010
  20                   JUNCTION    373.44  2059.32   235  20:56         450    1.64e+04       0.015
  21                   JUNCTION   1002.84  2461.35   259  04:09    1.72e+03    1.94e+04      -0.200
  22                   JUNCTION    362.19   883.35   259  04:09         381         920       0.585
  23                   JUNCTION      0.00   489.69   256  15:57           0        8.39       0.000
  24                   JUNCTION   4540.53  6078.10   237  07:00    1.21e+04    3.08e+04       0.004
  25                   JUNCTION     92.06  1311.10   237  07:00        82.3    9.27e+03      -0.003
  26                   JUNCTION     15.50  1055.11   237  07:00        81.5    1.36e+04       0.059
  27                   OUTFALL      60.01  3799.16   237  07:00        51.1    8.16e+03       0.000
  28                   OUTFALL       0.00  1311.01   237  07:00           0    9.27e+03       0.000
  29                   OUTFALL       0.00  1055.11   237  07:00           0    1.36e+04       0.000
  
  
  **********************
  Node Surcharge Summary
  **********************
  
  Surcharging occurs when water rises above the top of the highest conduit.
  ---------------------------------------------------------------------
                                               Max. Height   Min. Depth
                                   Hours       Above Crown    Below Rim
  Node                 Type      Surcharged         Meters       Meters
  ---------------------------------------------------------------------
  6                    JUNCTION       61.29         62.927        0.000
  11                   JUNCTION     7843.42        136.378        0.000
  12                   JUNCTION       95.62         57.054        0.000
  13                   JUNCTION     2495.84        108.876        0.000
  14                   JUNCTION      172.90         81.372        0.000
  15                   JUNCTION     2418.69        108.875        0.000
  16                   JUNCTION      185.70         84.111        0.000
  17                   JUNCTION     2088.58        110.394        0.000
  18                   JUNCTION      794.71        145.369        0.000
  19                   JUNCTION       62.29          7.813        0.000
  20                   JUNCTION     2297.74        161.150        0.000
  21                   JUNCTION     2652.87        200.000        0.000
  22                   JUNCTION     7791.42        200.000        0.000
  23                   JUNCTION     2266.68        120.700        0.000
  24                   JUNCTION     3297.47         89.366        0.000
  25                   JUNCTION     3109.30         73.978        0.000
  26                   JUNCTION     7835.00         18.836        0.000
  
  
  *********************
  Node Flooding Summary
  *********************
  
  Flooding refers to all water that overflows a node, whether it ponds or not.
  --------------------------------------------------------------------------
                                                             Total   Maximum
                                 Maximum   Time of Max       Flood    Ponded
                        Hours       Rate    Occurrence      Volume     Depth
  Node                 Flooded       LPS   days hr:min    10^6 ltr    Meters
  --------------------------------------------------------------------------
  21                     29.65    860.80    259  04:09      37.090   200.000
  22                     53.96    881.16    259  04:09      73.007   200.000
  
  
  ***********************
  Outfall Loading Summary
  ***********************
  
  -----------------------------------------------------------
                         Flow       Avg       Max       Total
                         Freq      Flow      Flow      Volume
  Outfall Node           Pcnt       LPS       LPS    10^6 ltr
  -----------------------------------------------------------
  27                    82.16    440.25   3799.16    8159.009
  28                    99.64    400.22   1311.01    9272.693
  29                    99.38    547.98   1055.11   13552.511
  -----------------------------------------------------------
  System                93.73   1388.45   1055.11   30984.213
  
  
  ********************
  Link Flow Summary
  ********************
  
  -----------------------------------------------------------------------------
                                 Maximum  Time of Max   Maximum    Max/    Max/
                                  |Flow|   Occurrence   |Veloc|    Full    Full
  Link                 Type          LPS  days hr:min     m/sec    Flow   Depth
  -----------------------------------------------------------------------------
  0                    CONDUIT      0.00     0  00:00      0.00    0.00    0.00
  1                    CONDUIT      0.00     0  00:00      0.00    0.00    0.50
  2                    CONDUIT      0.00     0  00:00      0.00    0.00    0.00
  3                    CONDUIT      0.00     0  00:00      0.00    0.00    0.00
  4                    CONDUIT   1256.40   259  03:00      0.17    0.03    1.00
  5                    CONDUIT   1178.92   262  21:00      0.22    0.02    1.00
  6                    CONDUIT      0.00     0  00:00      0.00    0.00    0.00
  7                    CONDUIT      0.00     0  00:00      0.00    0.00    0.00
  8                    CONDUIT      0.00     0  00:00      0.00    0.00    0.00
  9                    CONDUIT     56.21   259  03:03      0.48    0.00    0.03
  10                   CONDUIT    262.92   259  03:01      1.58    0.00    0.04
  11                   CONDUIT    537.58   259  03:08      0.08    0.00    0.52
  12                   CONDUIT    588.05   259  09:38      0.09    0.00    0.86
  13                   CONDUIT   1460.55   160  12:54      4.74    0.02    1.00
  14                   CONDUIT  13655.97   221  16:52    >50.00    0.00    1.00
  15                   CONDUIT   6254.19   235  20:42      0.50   20.62    1.00
  16                   CONDUIT    409.98   262  21:00      3.70    0.14    1.00
  17                   CONDUIT    150.65   259  09:25      0.21   31.12    1.00
  18                   CONDUIT   2935.36   235  20:45      3.75  298.62    1.00
  19                   CONDUIT    802.64   221  16:52      2.02    0.00    1.00
  20                   CONDUIT    595.18   262  23:16      0.80    0.20    1.00
  21                   CONDUIT   1921.53   235  20:56      2.70    1.11    1.00
  22                   CONDUIT   1515.88   235  21:20      1.99    1.20    1.00
  23                   CONDUIT    499.88   197  07:28      0.64    0.65    1.00
  24                   CONDUIT   1650.21   169  06:59      2.10    1.34    1.00
  25                   CONDUIT    514.72   259  03:19      0.10    0.00    1.00
  26                   CONDUIT    489.69   256  15:57      1.20    0.00    1.00
  27                   CONDUIT   1040.09   237  07:00      1.32    1.35    1.00
  28                   CONDUIT   1266.50   237  07:00      1.61  223.16    1.00
  29                   CONDUIT   3771.40   237  07:00      4.80    1.99    1.00
  30                   CONDUIT   1311.01   237  07:00      1.88    2.05    0.83
  31                   CONDUIT   1055.11   237  07:00      1.70    0.46    0.74
  
  
  ***************************
  Flow Classification Summary
  ***************************
  
  -------------------------------------------------------------------------------------
                      Adjusted    ---------- Fraction of Time in Flow Class ---------- 
                       /Actual         Up    Down  Sub   Sup   Up    Down  Norm  Inlet 
  Conduit               Length    Dry  Dry   Dry   Crit  Crit  Crit  Crit  Ltd   Ctrl  
  -------------------------------------------------------------------------------------
  0                       1.00   1.00  0.00  0.00  0.00  0.00  0.00  0.00  0.00  0.00
  1                       1.00   0.00  1.00  0.00  0.00  0.00  0.00  0.00  0.00  0.00
  2                       1.00   1.00  0.00  0.00  0.00  0.00  0.00  0.00  0.00  0.00
  3                       1.00   1.00  0.00  0.00  0.00  0.00  0.00  0.00  0.00  0.00
  4                       1.00   0.00  0.87  0.00  0.13  0.00  0.00  0.00  0.46  0.00
  5                       1.00   0.00  0.00  0.00  1.00  0.00  0.00  0.00  0.66  0.00
  6                       1.00   1.00  0.00  0.00  0.00  0.00  0.00  0.00  0.00  0.00
  7                       1.00   1.00  0.00  0.00  0.00  0.00  0.00  0.00  0.00  0.00
  8                       1.00   1.00  0.00  0.00  0.00  0.00  0.00  0.00  0.00  0.00
  9                       1.00   0.00  0.02  0.00  0.98  0.00  0.00  0.00  0.99  0.00
  10                      1.00   0.00  0.01  0.00  0.52  0.46  0.00  0.00  0.99  0.00
  11                      1.00   0.00  0.00  0.00  1.00  0.00  0.00  0.00  0.99  0.00
  12                      1.00   0.00  0.00  0.00  1.00  0.00  0.00  0.00  0.99  0.00
  13                      1.00   0.00  0.00  0.00  1.00  0.00  0.00  0.00  0.01  0.00
  14                      1.00   0.00  0.62  0.00  0.37  0.00  0.00  0.00  0.77  0.00
  15                      1.00   0.00  0.00  0.00  1.00  0.00  0.00  0.00  0.01  0.00
  16                      1.00   0.00  0.00  0.00  0.03  0.96  0.00  0.00  0.01  0.00
  17                      1.00   0.49  0.00  0.00  0.51  0.00  0.00  0.00  0.15  0.00
  18                      1.00   0.00  0.00  0.00  1.00  0.00  0.00  0.00  0.00  0.00
  19                      1.00   0.00  0.57  0.00  0.42  0.00  0.00  0.00  0.89  0.00
  20                      1.00   0.00  0.57  0.00  0.42  0.00  0.00  0.00  0.97  0.00
  21                      1.00   0.00  0.00  0.00  0.98  0.02  0.00  0.00  0.70  0.00
  22                      1.00   0.00  0.00  0.00  1.00  0.00  0.00  0.00  0.66  0.00
  23                      1.00   0.00  0.00  0.00  1.00  0.00  0.00  0.00  0.01  0.00
  24                      1.00   0.00  0.00  0.00  1.00  0.00  0.00  0.00  0.61  0.00
  25                      1.00   0.00  0.00  0.00  1.00  0.00  0.00  0.00  0.97  0.00
  26                      1.00   0.00  0.63  0.00  0.36  0.00  0.00  0.00  0.15  0.00
  27                      1.00   0.00  0.00  0.00  1.00  0.00  0.00  0.00  0.56  0.00
  28                      1.00   0.00  0.00  0.00  1.00  0.00  0.00  0.00  0.00  0.00
  29                      1.00   0.00  0.53  0.00  0.47  0.00  0.00  0.00  0.27  0.00
  30                      1.00   0.00  0.00  0.00  1.00  0.00  0.00  0.00  0.00  0.00
  31                      1.00   0.00  0.00  0.00  0.99  0.00  0.00  0.00  0.02  0.00
  
  
  *************************
  Conduit Surcharge Summary
  *************************
  
  ----------------------------------------------------------------------------
                                                           Hours        Hours 
                         --------- Hours Full --------   Above Full   Capacity
  Conduit                Both Ends  Upstream  Dnstream   Normal Flow   Limited
  ----------------------------------------------------------------------------
  4                          61.28     61.28    631.41      0.01         0.01
  5                         794.69    794.69   2652.86      0.01         0.01
  11                          0.01      0.01   7843.42      0.01         0.01
  12                          0.01      0.01   7843.42      0.01         0.01
  13                       2424.03   2424.03   7843.42      0.01         0.01
  14                        172.90    172.90   2422.33      0.01         0.01
  15                       2398.97   2422.34   2405.15   4011.34       960.61
  16                         95.60     95.60    186.60      0.01         0.01
  17                        185.69    186.60    185.69    198.80       185.68
  18                       2088.51   3881.46   2088.51   7840.02      2088.51
  19                        185.69    185.69   3880.93      0.01         0.01
  20                        185.68    185.68   2088.65      0.01         0.01
  21                       2083.50   2088.54   2297.71      6.00         0.10
  22                       2279.75   2297.67   3015.45   1563.54      1617.69
  23                       2297.69   2297.69   7829.90      0.01         0.01
  24                       3015.45   3015.45   3297.44   2660.04      2644.03
  25                         62.30     62.30   7791.42      0.01         0.01
  26                       2266.55   2266.55   5167.83      0.01         0.01
  27                       3297.44   3297.44   7835.00   2069.59      2626.43
  28                       3109.22   3297.44   3109.22   7050.99      3109.22
  29                          7.31      7.31   5138.63    165.77         0.01
  30                          0.01   3109.23      0.01   3080.27         0.01
  31                          0.01      0.01   7834.49      0.01         0.01
  

  Analysis begun on:  Tue Apr 14 21:32:36 2020
  Analysis ended on:  Tue Apr 14 21:35:27 2020
  Total elapsed time: 00:02:51